<?xml version="1.0" encoding="UTF-8"?>

<!-- generated on 2024-12-14 12:36:05.907233 by randomTrips.py UNKNOWN
<configuration>
    <net-file value="osm.net.xml.gz"/>
    <output-trip-file value="osm.passenger.trips.xml"/>
    <route-file value="osm.passenger.rou.xml"/>
    <prefix value="veh"/>
    <trip-attributes value="departLane=&quot;best&quot;"/>
    <fringe-start-attributes value="departSpeed=&quot;max&quot;"/>
    <vehicle-class value="passenger"/>
    <lanes value="True"/>
    <fringe-factor value="5"/>
    <allow-fringe.min-length value="1000.0"/>
    <via-edge-types value="highway.motorway,highway.motorway_link,highway.trunk_link,highway.primary_link,highway.secondary_link,highway.tertiary_link"/>
    <min-distance value="300.0"/>
    <min-distance.fringe value="10.0"/>
    <remove-loops value="True"/>
    <validate value="True"/>
    <insertion-density value="100.0"/>
</configuration>
-->

<!-- generated on 2024-12-14 12:36:05 by Eclipse SUMO duarouter Version 1.20.0
<configuration xmlns:xsi="http://www.w3.org/2001/XMLSchema-instance" xsi:noNamespaceSchemaLocation="http://sumo.dlr.de/xsd/duarouterConfiguration.xsd">

    <input>
        <net-file value="osm.net.xml.gz"/>
        <route-files value="osm.passenger.trips.xml"/>
    </input>

    <output>
        <output-file value="osm.passenger.trips.xml.tmp"/>
        <alternatives-output value="NUL"/>
        <write-trips value="true"/>
    </output>

    <processing>
        <remove-loops value="true"/>
    </processing>

    <time>
        <begin value="0.0"/>
        <end value="3600.0"/>
    </time>

    <report>
        <no-warnings value="true"/>
        <ignore-errors value="true"/>
        <no-step-log value="true"/>
    </report>

</configuration>
-->

<routes xmlns:xsi="http://www.w3.org/2001/XMLSchema-instance" xsi:noNamespaceSchemaLocation="http://sumo.dlr.de/xsd/routes_file.xsd">
    <vType id="veh_passenger" vClass="passenger"/>
    <trip id="veh0" type="veh_passenger" depart="0.00" departLane="best" from="22972470#0" to="-1119938072#1"/>
    <trip id="veh1" type="veh_passenger" depart="0.85" departLane="best" from="1199404285" to="-437325055#2"/>
    <trip id="veh2" type="veh_passenger" depart="1.71" departLane="best" from="327462543#0" to="24509318"/>
    <trip id="veh3" type="veh_passenger" depart="2.56" departLane="best" from="-4597324#2" to="1126241276#0"/>
    <trip id="veh4" type="veh_passenger" depart="3.42" departLane="best" from="1151333058#0" to="114667396#0"/>
    <trip id="veh5" type="veh_passenger" depart="4.27" departLane="best" from="-1110750064" to="-375459781#1"/>
    <trip id="veh6" type="veh_passenger" depart="5.12" departLane="best" from="236092221#0" to="1190781964"/>
    <trip id="veh7" type="veh_passenger" depart="5.98" departLane="best" from="-389101365#3" to="155186522#0"/>
    <trip id="veh9" type="veh_passenger" depart="7.69" departLane="best" from="375311157#0" to="305153173"/>
    <trip id="veh10" type="veh_passenger" depart="8.54" departLane="best" from="67099789#0" to="1009114665#0"/>
    <trip id="veh11" type="veh_passenger" depart="9.39" departLane="best" from="28251222#0" to="-1303648806#2"/>
    <trip id="veh12" type="veh_passenger" depart="10.25" departLane="best" from="43376693#0" to="169999355#0"/>
    <trip id="veh13" type="veh_passenger" depart="11.10" departLane="best" from="375311157#0" to="-35557161#2"/>
    <trip id="veh14" type="veh_passenger" depart="11.96" departLane="best" from="1199404285" to="-831860725#2"/>
    <trip id="veh15" type="veh_passenger" depart="12.81" departLane="best" from="1105574289#0" to="-505526660#1"/>
    <trip id="veh17" type="veh_passenger" depart="14.52" departLane="best" from="-4402014#3" to="147066248#0"/>
    <trip id="veh18" type="veh_passenger" depart="15.37" departLane="best" departSpeed="max" from="30805074#0" to="-1132164863"/>
    <trip id="veh19" type="veh_passenger" depart="16.23" departLane="best" from="4401967#0" to="-505526660#1"/>
    <trip id="veh20" type="veh_passenger" depart="17.08" departLane="best" departSpeed="max" from="-1151333062#1" to="4402037#0"/>
    <trip id="veh21" type="veh_passenger" depart="17.94" departLane="best" from="-1228769796#1" to="4611718#0"/>
    <trip id="veh23" type="veh_passenger" depart="19.64" departLane="best" from="1077923225#0" to="-437325055#2"/>
    <trip id="veh24" type="veh_passenger" depart="20.50" departLane="best" from="-461526153#1" to="67627350#0"/>
    <trip id="veh25" type="veh_passenger" depart="21.35" departLane="best" from="236092221#0" to="169999355#0"/>
    <trip id="veh26" type="veh_passenger" depart="22.21" departLane="best" departSpeed="max" from="-24509318" to="1101961674#0"/>
    <trip id="veh27" type="veh_passenger" depart="23.06" departLane="best" from="882389494#0" to="23017853"/>
    <trip id="veh28" type="veh_passenger" depart="23.91" departLane="best" from="1238797610#0" to="-24913267#3"/>
    <trip id="veh29" type="veh_passenger" depart="24.77" departLane="best" from="43233756#0" to="375311156#0"/>
    <trip id="veh30" type="veh_passenger" depart="25.62" departLane="best" from="-4401967#2" to="-1126465423"/>
    <trip id="veh31" type="veh_passenger" depart="26.48" departLane="best" departSpeed="max" from="-67627350#1" to="-4611708#2"/>
    <trip id="veh32" type="veh_passenger" depart="27.33" departLane="best" from="-375311155#2" to="681299268#0"/>
    <trip id="veh33" type="veh_passenger" depart="28.18" departLane="best" from="-4611718#1" to="-4597322#1"/>
    <trip id="veh34" type="veh_passenger" depart="29.04" departLane="best" from="15973619#9" to="65040958#0"/>
    <trip id="veh35" type="veh_passenger" depart="29.89" departLane="best" departSpeed="max" from="1110746456" to="-437325055#2"/>
    <trip id="veh37" type="veh_passenger" depart="31.60" departLane="best" from="1159149106#0" to="-1132164863"/>
    <trip id="veh38" type="veh_passenger" depart="32.45" departLane="best" departSpeed="max" from="-1302053249" to="199847241#0"/>
    <trip id="veh39" type="veh_passenger" depart="33.31" departLane="best" from="-1136657258#1" to="1101961674#0"/>
    <trip id="veh41" type="veh_passenger" depart="35.02" departLane="best" from="753316506#0" to="4611718#0"/>
    <trip id="veh42" type="veh_passenger" depart="35.87" departLane="best" from="1125869405#0" to="340498982#0"/>
    <trip id="veh43" type="veh_passenger" depart="36.72" departLane="best" departSpeed="max" from="-1302053249" to="1125871619#3"/>
    <trip id="veh44" type="veh_passenger" depart="37.58" departLane="best" from="1126237668#0" to="707107510#0"/>
    <trip id="veh45" type="veh_passenger" depart="38.43" departLane="best" from="4588217#0" to="4611696#1"/>
    <trip id="veh47" type="veh_passenger" depart="40.14" departLane="best" from="4611706#0" to="47707170#2"/>
    <trip id="veh48" type="veh_passenger" depart="41.00" departLane="best" departSpeed="max" from="168515533#0" to="-24913267#3"/>
    <trip id="veh49" type="veh_passenger" depart="41.85" departLane="best" from="-35557161#2" to="1170522572#0"/>
    <trip id="veh50" type="veh_passenger" depart="42.70" departLane="best" departSpeed="max" from="356359316#0" to="1155757393#0"/>
    <trip id="veh51" type="veh_passenger" depart="43.56" departLane="best" departSpeed="max" from="-1009114665#1" to="-81113584#2"/>
    <trip id="veh52" type="veh_passenger" depart="44.41" departLane="best" departSpeed="max" from="-1101961674#1" to="67099797#0"/>
    <trip id="veh53" type="veh_passenger" depart="45.27" departLane="best" departSpeed="max" from="-67099797#1" to="-1136657265#1"/>
    <trip id="veh54" type="veh_passenger" depart="46.12" departLane="best" departSpeed="max" from="-114667396#2" to="375311154#1"/>
    <trip id="veh55" type="veh_passenger" depart="46.97" departLane="best" from="35557161#4" to="-168935757#3"/>
    <trip id="veh57" type="veh_passenger" depart="48.68" departLane="best" from="4611718#1" to="508410318#0"/>
    <trip id="veh58" type="veh_passenger" depart="49.54" departLane="best" from="1199404285" to="35557161#0"/>
    <trip id="veh59" type="veh_passenger" depart="50.39" departLane="best" from="335462916" to="67099789#0"/>
    <trip id="veh61" type="veh_passenger" depart="52.10" departLane="best" from="1123184403" to="1151333058#0"/>
    <trip id="veh62" type="veh_passenger" depart="52.95" departLane="best" departSpeed="max" from="-153698380#2" to="-437325055#2"/>
    <trip id="veh63" type="veh_passenger" depart="53.81" departLane="best" departSpeed="max" from="-840229277#1" to="155186522#0"/>
    <trip id="veh64" type="veh_passenger" depart="54.66" departLane="best" from="-4401967#2" to="-437325055#2"/>
    <trip id="veh65" type="veh_passenger" depart="55.51" departLane="best" departSpeed="max" from="-114667396#2" to="199847247#0"/>
    <trip id="veh67" type="veh_passenger" depart="57.22" departLane="best" from="-4597324#2" to="24240246#0"/>
    <trip id="veh68" type="veh_passenger" depart="58.08" departLane="best" from="-375311158#4" to="194069450#0"/>
    <trip id="veh69" type="veh_passenger" depart="58.93" departLane="best" from="47707170#2" to="1252995263"/>
    <trip id="veh70" type="veh_passenger" depart="59.78" departLane="best" departSpeed="max" from="1126245113" to="375311158#0"/>
    <trip id="veh71" type="veh_passenger" depart="60.64" departLane="best" from="375311157#0" to="-356359316#3"/>
    <trip id="veh72" type="veh_passenger" depart="61.49" departLane="best" from="42102542#0" to="1123184404#0"/>
    <trip id="veh73" type="veh_passenger" depart="62.35" departLane="best" from="1119937599#2" to="1126488562"/>
    <trip id="veh74" type="veh_passenger" depart="63.20" departLane="best" departSpeed="max" from="320462164#0" to="-24509317#2"/>
    <trip id="veh75" type="veh_passenger" depart="64.05" departLane="best" from="1110748916#0" to="1009114665#0"/>
    <trip id="veh76" type="veh_passenger" depart="64.91" departLane="best" from="4402014#0" to="-4597322#1"/>
    <trip id="veh77" type="veh_passenger" depart="65.76" departLane="best" departSpeed="max" from="-327756257#2" to="1126244314#0"/>
    <trip id="veh78" type="veh_passenger" depart="66.62" departLane="best" from="1119937599#2" to="4611718#0"/>
    <trip id="veh79" type="veh_passenger" depart="67.47" departLane="best" from="-4611696#5" to="67099789#0"/>
    <trip id="veh80" type="veh_passenger" depart="68.33" departLane="best" from="375311156#0" to="4611718#0"/>
    <trip id="veh81" type="veh_passenger" depart="69.18" departLane="best" from="1217865061#0" to="-1132166349#1"/>
    <trip id="veh82" type="veh_passenger" depart="70.03" departLane="best" from="98399537" to="4611693#2"/>
    <trip id="veh83" type="veh_passenger" depart="70.89" departLane="best" from="-753316505#2" to="67099797#0"/>
    <trip id="veh84" type="veh_passenger" depart="71.74" departLane="best" from="435164424#0" to="-335462916"/>
    <trip id="veh85" type="veh_passenger" depart="72.60" departLane="best" from="-1132164217#2" to="-437325055#2"/>
    <trip id="veh86" type="veh_passenger" depart="73.45" departLane="best" departSpeed="max" from="1110746456" to="-1136657266#2"/>
    <trip id="veh87" type="veh_passenger" depart="74.30" departLane="best" from="4611718#1" to="375311157#0"/>
    <trip id="veh88" type="veh_passenger" depart="75.16" departLane="best" from="1126237668#0" to="1123184403"/>
    <trip id="veh89" type="veh_passenger" depart="76.01" departLane="best" from="-67099789#2" to="930343902"/>
    <trip id="veh90" type="veh_passenger" depart="76.87" departLane="best" from="-1228446781#4" to="340498982#0"/>
    <trip id="veh92" type="veh_passenger" depart="78.57" departLane="best" from="753316505#0" to="153698380#0"/>
    <trip id="veh93" type="veh_passenger" depart="79.43" departLane="best" departSpeed="max" from="120675240#0" to="375311154#1"/>
    <trip id="veh94" type="veh_passenger" depart="80.28" departLane="best" from="-1132164893#3" to="153698380#0"/>
    <trip id="veh96" type="veh_passenger" depart="81.99" departLane="best" from="-24242882#2" to="753316505#0"/>
    <trip id="veh97" type="veh_passenger" depart="82.84" departLane="best" departSpeed="max" from="-1151333062#1" to="-356359316#3"/>
    <trip id="veh98" type="veh_passenger" depart="83.70" departLane="best" from="-4402037#2" to="15973619#0"/>
    <trip id="veh99" type="veh_passenger" depart="84.55" departLane="best" departSpeed="max" from="168515533#0" to="194069450#0"/>
    <trip id="veh100" type="veh_passenger" depart="85.41" departLane="best" from="1170522567#0" to="67627350#0"/>
    <trip id="veh101" type="veh_passenger" depart="86.26" departLane="best" from="-35557161#2" to="339201217"/>
    <trip id="veh102" type="veh_passenger" depart="87.11" departLane="best" from="-4597324#2" to="110786129#0"/>
    <trip id="veh103" type="veh_passenger" depart="87.97" departLane="best" departSpeed="max" from="-67627350#1" to="375311154#1"/>
    <trip id="veh104" type="veh_passenger" depart="88.82" departLane="best" departSpeed="max" from="-114667396#2" to="1126244314#0"/>
    <trip id="veh105" type="veh_passenger" depart="89.68" departLane="best" from="98399537" to="930343902"/>
    <trip id="veh106" type="veh_passenger" depart="90.53" departLane="best" departSpeed="max" from="-114667396#2" to="-437325055#2"/>
    <trip id="veh107" type="veh_passenger" depart="91.39" departLane="best" from="4611718#1" to="67099797#0"/>
    <trip id="veh108" type="veh_passenger" depart="92.24" departLane="best" from="4588224#0" to="508410318#0"/>
    <trip id="veh109" type="veh_passenger" depart="93.09" departLane="best" from="1077923225#0" to="-327462543#2"/>
    <trip id="veh114" type="veh_passenger" depart="97.36" departLane="best" from="707100745#0" to="-147066248#8"/>
    <trip id="veh115" type="veh_passenger" depart="98.22" departLane="best" from="-47755711#4" to="169999355#0"/>
    <trip id="veh116" type="veh_passenger" depart="99.07" departLane="best" from="199847252#0" to="4611696#4"/>
    <trip id="veh118" type="veh_passenger" depart="100.78" departLane="best" from="43348945#0" to="-1263204721"/>
    <trip id="veh119" type="veh_passenger" depart="101.63" departLane="best" from="1119937599#2" to="4611714#2"/>
    <trip id="veh120" type="veh_passenger" depart="102.49" departLane="best" departSpeed="max" from="-1009114665#1" to="-375311155#2"/>
    <trip id="veh121" type="veh_passenger" depart="103.34" departLane="best" from="199847252#0" to="-4611694#2"/>
    <trip id="veh122" type="veh_passenger" depart="104.20" departLane="best" from="330840125#0" to="-505526660#1"/>
    <trip id="veh123" type="veh_passenger" depart="105.05" departLane="best" departSpeed="max" from="1119938072#0" to="-1079386620#3"/>
    <trip id="veh124" type="veh_passenger" depart="105.90" departLane="best" departSpeed="max" from="-114667396#2" to="530085625#0"/>
    <trip id="veh125" type="veh_passenger" depart="106.76" departLane="best" from="-4611694#2" to="-196850605#1"/>
    <trip id="veh127" type="veh_passenger" depart="108.47" departLane="best" from="23017853" to="-168935756#2"/>
    <trip id="veh128" type="veh_passenger" depart="109.32" departLane="best" departSpeed="max" from="-67099797#1" to="66071366#0"/>
    <trip id="veh129" type="veh_passenger" depart="110.17" departLane="best" from="375311156#0" to="4611718#0"/>
    <trip id="veh130" type="veh_passenger" depart="111.03" departLane="best" from="4597326#0" to="-437325055#2"/>
    <trip id="veh131" type="veh_passenger" depart="111.88" departLane="best" from="-4611696#5" to="-1303648806#2"/>
    <trip id="veh132" type="veh_passenger" depart="112.74" departLane="best" departSpeed="max" from="356359316#0" to="530085625#0"/>
    <trip id="veh133" type="veh_passenger" depart="113.59" departLane="best" from="1110752486" to="196850607#0"/>
    <trip id="veh134" type="veh_passenger" depart="114.44" departLane="best" from="-23755950#2" to="67099797#0"/>
    <trip id="veh135" type="veh_passenger" depart="115.30" departLane="best" from="448810728" to="85255869#0"/>
    <trip id="veh136" type="veh_passenger" depart="116.15" departLane="best" from="375311158#0" to="-508410319#2"/>
    <trip id="veh137" type="veh_passenger" depart="117.01" departLane="best" from="1105574291#0" to="375311154#0"/>
    <trip id="veh138" type="veh_passenger" depart="117.86" departLane="best" from="753316506#0" to="67099797#0"/>
    <trip id="veh139" type="veh_passenger" depart="118.72" departLane="best" from="375311157#0" to="461526152#0"/>
    <trip id="veh140" type="veh_passenger" depart="119.57" departLane="best" from="-375311158#4" to="-4611706#2"/>
    <trip id="veh141" type="veh_passenger" depart="120.42" departLane="best" from="375311154#0" to="-1303648806#2"/>
    <trip id="veh142" type="veh_passenger" depart="121.28" departLane="best" departSpeed="max" from="4588215#0" to="4611714#0"/>
    <trip id="veh143" type="veh_passenger" depart="122.13" departLane="best" departSpeed="max" from="1126245113" to="-66071366#4"/>
    <trip id="veh144" type="veh_passenger" depart="122.99" departLane="best" from="375311156#0" to="-4401967#2"/>
    <trip id="veh145" type="veh_passenger" depart="123.84" departLane="best" from="-1105574291#3" to="375311155#0"/>
    <trip id="veh146" type="veh_passenger" depart="124.69" departLane="best" from="-710761407#2" to="461526152#0"/>
    <trip id="veh147" type="veh_passenger" depart="125.55" departLane="best" from="22972473#0" to="-681299267#1"/>
    <trip id="veh148" type="veh_passenger" depart="126.40" departLane="best" from="831860725#0" to="1170522572#0"/>
    <trip id="veh149" type="veh_passenger" depart="127.26" departLane="best" from="-508410319#2" to="-147066248#8"/>
    <trip id="veh150" type="veh_passenger" depart="128.11" departLane="best" from="753316506#0" to="-356359316#3"/>
    <trip id="veh151" type="veh_passenger" depart="128.96" departLane="best" from="707100745#0" to="-4611706#2"/>
    <trip id="veh152" type="veh_passenger" depart="129.82" departLane="best" departSpeed="max" from="-1302053249" to="1125871619#3"/>
    <trip id="veh153" type="veh_passenger" depart="130.67" departLane="best" departSpeed="max" from="320462164#0" to="-681299267#1"/>
    <trip id="veh154" type="veh_passenger" depart="131.53" departLane="best" departSpeed="max" from="168515533#0" to="1149417521#0"/>
    <trip id="veh155" type="veh_passenger" depart="132.38" departLane="best" from="110785555#0" to="132600840#0"/>
    <trip id="veh156" type="veh_passenger" depart="133.23" departLane="best" from="-4611710#2" to="-327462543#2"/>
    <trip id="veh157" type="veh_passenger" depart="134.09" departLane="best" departSpeed="max" from="-1009114665#1" to="67099797#0"/>
    <trip id="veh158" type="veh_passenger" depart="134.94" departLane="best" from="1199404285" to="340498982#0"/>
    <trip id="veh159" type="veh_passenger" depart="135.80" departLane="best" from="1073015934" to="-1155762025#2"/>
    <trip id="veh161" type="veh_passenger" depart="137.50" departLane="best" departSpeed="max" from="-67099797#1" to="4611707#0"/>
    <trip id="veh162" type="veh_passenger" depart="138.36" departLane="best" departSpeed="max" from="320462164#0" to="-65040946#7"/>
    <trip id="veh163" type="veh_passenger" depart="139.21" departLane="best" departSpeed="max" from="-67099797#1" to="-24997595#1"/>
    <trip id="veh165" type="veh_passenger" depart="140.92" departLane="best" from="530085625#0" to="24509318"/>
    <trip id="veh166" type="veh_passenger" depart="141.78" departLane="best" from="4611693#2" to="82488124#0"/>
    <trip id="veh167" type="veh_passenger" depart="142.63" departLane="best" from="-66071366#4" to="-505526660#1"/>
    <trip id="veh168" type="veh_passenger" depart="143.48" departLane="best" departSpeed="max" from="-1009114665#1" to="-505526660#1"/>
    <trip id="veh169" type="veh_passenger" depart="144.34" departLane="best" from="23755961#0" to="1126246695#1"/>
    <trip id="veh170" type="veh_passenger" depart="145.19" departLane="best" from="1123184404#0" to="-437325055#2"/>
    <trip id="veh171" type="veh_passenger" depart="146.05" departLane="best" departSpeed="max" from="1126245113" to="66071366#4"/>
    <trip id="veh172" type="veh_passenger" depart="146.90" departLane="best" from="375311156#0" to="-35557161#2"/>
    <trip id="veh173" type="veh_passenger" depart="147.75" departLane="best" departSpeed="max" from="-1151333062#1" to="340498982#0"/>
    <trip id="veh174" type="veh_passenger" depart="148.61" departLane="best" from="199847244#0" to="1009114665#0"/>
    <trip id="veh175" type="veh_passenger" depart="149.46" departLane="best" from="389101365#0" to="375311154#1"/>
    <trip id="veh176" type="veh_passenger" depart="150.32" departLane="best" from="-335462874#2" to="-1119938072#1"/>
    <trip id="veh177" type="veh_passenger" depart="151.17" departLane="best" from="4611693#2" to="1132164217#4"/>
    <trip id="veh178" type="veh_passenger" depart="152.02" departLane="best" departSpeed="max" from="437325055#0" to="-1155764611#1"/>
    <trip id="veh179" type="veh_passenger" depart="152.88" departLane="best" from="1119935543#0" to="199847247#0"/>
    <trip id="veh180" type="veh_passenger" depart="153.73" departLane="best" departSpeed="max" from="-327756257#2" to="292429056#0"/>
    <trip id="veh182" type="veh_passenger" depart="155.44" departLane="best" from="1149417521#2" to="375311155#0"/>
    <trip id="veh183" type="veh_passenger" depart="156.29" departLane="best" departSpeed="max" from="-1302053249" to="1123184403"/>
    <trip id="veh184" type="veh_passenger" depart="157.15" departLane="best" departSpeed="max" from="-25042806" to="-197160273#4"/>
    <trip id="veh185" type="veh_passenger" depart="158.00" departLane="best" from="-4588220#2" to="1132166349#0"/>
    <trip id="veh186" type="veh_passenger" depart="158.86" departLane="best" from="1126237668#0" to="43231842#0"/>
    <trip id="veh187" type="veh_passenger" depart="159.71" departLane="best" departSpeed="max" from="168515533#0" to="707107510#0"/>
    <trip id="veh188" type="veh_passenger" depart="160.56" departLane="best" from="-4597324#2" to="188386313#0"/>
    <trip id="veh189" type="veh_passenger" depart="161.42" departLane="best" departSpeed="max" from="320462164#0" to="114667396#0"/>
    <trip id="veh191" type="veh_passenger" depart="163.13" departLane="best" from="4597325#0" to="375311154#1"/>
    <trip id="veh192" type="veh_passenger" depart="163.98" departLane="best" from="-4611694#2" to="23017852#0"/>
    <trip id="veh193" type="veh_passenger" depart="164.83" departLane="best" from="35557161#4" to="1151333062#0"/>
    <trip id="veh194" type="veh_passenger" depart="165.69" departLane="best" from="196850607#0" to="-4611714#1"/>
    <trip id="veh195" type="veh_passenger" depart="166.54" departLane="best" from="-1151333056" to="-47755711#4"/>
    <trip id="veh196" type="veh_passenger" depart="167.40" departLane="best" departSpeed="max" from="120675240#0" to="23017853"/>
    <trip id="veh197" type="veh_passenger" depart="168.25" departLane="best" from="-4402014#3" to="-1171295120#1"/>
    <trip id="veh198" type="veh_passenger" depart="169.11" departLane="best" departSpeed="max" from="30805074#0" to="-1151333060"/>
    <trip id="veh199" type="veh_passenger" depart="169.96" departLane="best" from="-1110752632#3" to="1190781963#0"/>
    <trip id="veh200" type="veh_passenger" depart="170.81" departLane="best" from="1119935543#0" to="-43376693#6"/>
    <trip id="veh202" type="veh_passenger" depart="172.52" departLane="best" from="-15973619#9" to="-1190781962#1"/>
    <trip id="veh203" type="veh_passenger" depart="173.38" departLane="best" departSpeed="max" from="437325055#0" to="375311154#1"/>
    <trip id="veh205" type="veh_passenger" depart="175.08" departLane="best" from="-874528353#4" to="375311154#1"/>
    <trip id="veh206" type="veh_passenger" depart="175.94" departLane="best" departSpeed="max" from="437325055#0" to="707107510#0"/>
    <trip id="veh207" type="veh_passenger" depart="176.79" departLane="best" from="1119936840#0" to="375311154#1"/>
    <trip id="veh208" type="veh_passenger" depart="177.65" departLane="best" departSpeed="max" from="120675240#0" to="169999355#0"/>
    <trip id="veh209" type="veh_passenger" depart="178.50" departLane="best" from="-389101365#3" to="-437325055#2"/>
    <trip id="veh210" type="veh_passenger" depart="179.35" departLane="best" from="1123184403" to="-1119938072#1"/>
    <trip id="veh211" type="veh_passenger" depart="180.21" departLane="best" from="-831860725#2" to="24509318"/>
    <trip id="veh212" type="veh_passenger" depart="181.06" departLane="best" departSpeed="max" from="1126245113" to="-168935756#2"/>
    <trip id="veh213" type="veh_passenger" depart="181.92" departLane="best" from="194069450#0" to="-1119938072#1"/>
    <trip id="veh214" type="veh_passenger" depart="182.77" departLane="best" departSpeed="max" from="1110746456" to="1249342905"/>
    <trip id="veh215" type="veh_passenger" depart="183.62" departLane="best" from="-1110751835#1" to="-155186522#1"/>
    <trip id="veh216" type="veh_passenger" depart="184.48" departLane="best" from="1110748916#0" to="1126244314#0"/>
    <trip id="veh217" type="veh_passenger" depart="185.33" departLane="best" from="-1132164217#2" to="1101961674#0"/>
    <trip id="veh218" type="veh_passenger" depart="186.19" departLane="best" from="-375311155#2" to="-85255869#2"/>
    <trip id="veh219" type="veh_passenger" depart="187.04" departLane="best" from="-35557161#2" to="1101961674#0"/>
    <trip id="veh220" type="veh_passenger" depart="187.89" departLane="best" from="1149417521#2" to="-4597325#8"/>
    <trip id="veh221" type="veh_passenger" depart="188.75" departLane="best" from="-4611706#2" to="-1228446781#4"/>
    <trip id="veh222" type="veh_passenger" depart="189.60" departLane="best" departSpeed="max" from="-1101961674#1" to="1170522572#0"/>
    <trip id="veh223" type="veh_passenger" depart="190.46" departLane="best" from="98399537" to="1077923225#0"/>
    <trip id="veh224" type="veh_passenger" depart="191.31" departLane="best" from="236092221#0" to="16374191#0"/>
    <trip id="veh225" type="veh_passenger" depart="192.16" departLane="best" from="23755718#0" to="375311154#1"/>
    <trip id="veh226" type="veh_passenger" depart="193.02" departLane="best" from="-66071366#3" to="1151333058#0"/>
    <trip id="veh227" type="veh_passenger" depart="193.87" departLane="best" departSpeed="max" from="-1101961674#1" to="24913267#0"/>
    <trip id="veh228" type="veh_passenger" depart="194.73" departLane="best" departSpeed="max" from="30805074#0" to="375311155#0"/>
    <trip id="veh229" type="veh_passenger" depart="195.58" departLane="best" departSpeed="max" from="-24509318" to="169999355#0"/>
    <trip id="veh231" type="veh_passenger" depart="197.29" departLane="best" from="389101365#0" to="8008608"/>
    <trip id="veh232" type="veh_passenger" depart="198.14" departLane="best" departSpeed="max" from="-1302053249" to="-1119938072#1"/>
    <trip id="veh233" type="veh_passenger" depart="199.00" departLane="best" departSpeed="max" from="-67099797#1" to="24509318"/>
    <trip id="veh234" type="veh_passenger" depart="199.85" departLane="best" departSpeed="max" from="320462164#0" to="-1171295120#1"/>
    <trip id="veh235" type="veh_passenger" depart="200.71" departLane="best" from="25945760#0" to="199847244#0"/>
    <trip id="veh236" type="veh_passenger" depart="201.56" departLane="best" from="-1228769796#1" to="375311156#0"/>
    <trip id="veh237" type="veh_passenger" depart="202.41" departLane="best" departSpeed="max" from="437325055#0" to="168935757#0"/>
    <trip id="veh238" type="veh_passenger" depart="203.27" departLane="best" from="375311153#0" to="1073015940#0"/>
    <trip id="veh240" type="veh_passenger" depart="204.98" departLane="best" from="1170522567#0" to="1009114665#0"/>
    <trip id="veh241" type="veh_passenger" depart="205.83" departLane="best" departSpeed="max" from="437325055#0" to="4588222#0"/>
    <trip id="veh242" type="veh_passenger" depart="206.68" departLane="best" departSpeed="max" from="-1302053249" to="753316505#0"/>
    <trip id="veh243" type="veh_passenger" depart="207.54" departLane="best" from="199847252#0" to="-4597324#6"/>
    <trip id="veh244" type="veh_passenger" depart="208.39" departLane="best" departSpeed="max" from="30805074#0" to="1125871619#3"/>
    <trip id="veh245" type="veh_passenger" depart="209.25" departLane="best" from="326116286#0" to="-81113584#2"/>
    <trip id="veh246" type="veh_passenger" depart="210.10" departLane="best" from="-4773029#4" to="435164424#0"/>
    <trip id="veh247" type="veh_passenger" depart="210.95" departLane="best" from="1199404285" to="1132167972#0"/>
    <trip id="veh248" type="veh_passenger" depart="211.81" departLane="best" from="1123184403" to="-35557161#2"/>
    <trip id="veh249" type="veh_passenger" depart="212.66" departLane="best" from="-1302053249" to="4611710#0"/>
    <trip id="veh251" type="veh_passenger" depart="214.37" departLane="best" from="-65040946#7" to="-4597322#1"/>
    <trip id="veh252" type="veh_passenger" depart="215.22" departLane="best" departSpeed="max" from="1126245113" to="171423001#0"/>
    <trip id="veh253" type="veh_passenger" depart="216.08" departLane="best" from="1105574289#0" to="-1119938072#1"/>
    <trip id="veh254" type="veh_passenger" depart="216.93" departLane="best" departSpeed="max" from="437325055#0" to="-356359316#3"/>
    <trip id="veh255" type="veh_passenger" depart="217.79" departLane="best" from="-375311155#2" to="38912785#0"/>
    <trip id="veh256" type="veh_passenger" depart="218.64" departLane="best" departSpeed="max" from="-840229277#1" to="508410318#0"/>
    <trip id="veh257" type="veh_passenger" depart="219.50" departLane="best" departSpeed="max" from="30805074#0" to="4611714#2"/>
    <trip id="veh258" type="veh_passenger" depart="220.35" departLane="best" from="1125869405#0" to="-16374393#1"/>
    <trip id="veh259" type="veh_passenger" depart="221.20" departLane="best" departSpeed="max" from="-1151333062#1" to="340498982#0"/>