<?xml version="1.0" encoding="UTF-8"?>

<!-- generated on 2024-12-14 12:21:38 by Eclipse SUMO netconvert Version 1.20.0
<configuration xmlns:xsi="http://www.w3.org/2001/XMLSchema-instance" xsi:noNamespaceSchemaLocation="http://sumo.dlr.de/xsd/netconvertConfiguration.xsd">

    <input>
        <type-files value="${SUMO_HOME}/data/typemap/osmNetconvert.typ.xml"/>
        <osm-files value="osm_bbox.osm.xml.gz"/>
    </input>

    <output>
        <output-file value="osm.net.xml.gz"/>
        <output.street-names value="true"/>
        <output.original-names value="true"/>
    </output>

    <projection>
        <proj.utm value="true"/>
    </projection>

    <processing>
        <geometry.remove value="true"/>
        <roundabouts.guess value="true"/>
    </processing>

    <tls_building>
        <tls.discard-simple value="true"/>
        <tls.join value="true"/>
        <tls.guess-signals value="true"/>
        <tls.default-type value="actuated"/>
    </tls_building>

    <ramp_guessing>
        <ramps.guess value="true"/>
    </ramp_guessing>

    <edge_removal>
        <keep-edges.by-vclass value="passenger"/>
    </edge_removal>

    <junctions>
        <junctions.join value="true"/>
        <junctions.corner-detail value="5"/>
    </junctions>

</configuration>
-->

<net version="1.20" junctionCornerDetail="5" limitTurnSpeed="5.50" xmlns:xsi="http://www.w3.org/2001/XMLSchema-instance" xsi:noNamespaceSchemaLocation="http://sumo.dlr.de/xsd/net_file.xsd">

    <location netOffset="-389845.91,-5818745.29" convBoundary="0.00,0.00,1752.49,1250.49" origBoundary="13.373050,52.505595,13.408723,52.519734" projParameter="+proj=utm +zone=33 +ellps=WGS84 +datum=WGS84 +units=m +no_defs"/>

    <type id="highway.living_street" priority="2" numLanes="1" speed="2.78" disallow="tram rail_urban rail rail_electric rail_fast ship container cable_car subway aircraft wheelchair scooter drone" oneway="0"/>
    <type id="highway.primary" priority="12" numLanes="2" speed="27.78" disallow="tram rail_urban rail rail_electric rail_fast ship container cable_car subway aircraft wheelchair scooter drone" oneway="0"/>
    <type id="highway.residential" priority="3" numLanes="1" speed="13.89" disallow="tram rail_urban rail rail_electric rail_fast ship container cable_car subway aircraft wheelchair scooter drone" oneway="0"/>
    <type id="highway.secondary" priority="11" numLanes="1" speed="27.78" disallow="tram rail_urban rail rail_electric rail_fast ship container cable_car subway aircraft wheelchair scooter drone" oneway="0"/>
    <type id="highway.tertiary" priority="10" numLanes="1" speed="22.22" disallow="tram rail_urban rail rail_electric rail_fast ship container cable_car subway aircraft wheelchair scooter drone" oneway="0"/>

    <edge id=":1001074218_0" function="internal">
        <lane id=":1001074218_0_0" index="0" disallow="pedestrian tram rail_urban rail rail_electric rail_fast ship container cable_car subway aircraft wheelchair scooter drone" speed="11.11" length="0.30" shape="1327.79,316.02 1328.10,316.04"/>
        <lane id=":1001074218_0_1" index="1" disallow="pedestrian tram rail_urban rail rail_electric rail_fast ship container cable_car subway aircraft wheelchair scooter drone" speed="11.11" length="0.30" shape="1327.59,319.22 1327.89,319.24"/>
        <lane id=":1001074218_0_2" index="2" disallow="pedestrian tram rail_urban rail rail_electric rail_fast ship container cable_car subway aircraft wheelchair scooter drone" speed="11.11" length="0.30" shape="1327.39,322.41 1327.68,322.43"/>
    </edge>
    <edge id=":10189040386_0" function="internal">
        <lane id=":10189040386_0_0" index="0" disallow="pedestrian tram rail_urban rail rail_electric rail_fast ship container cable_car subway aircraft wheelchair scooter drone" speed="13.89" length="8.21" shape="1024.20,1051.57 1021.79,1051.64 1020.15,1052.07 1018.51,1052.50 1016.10,1052.57"/>
        <lane id=":10189040386_0_1" index="1" disallow="pedestrian tram rail_urban rail rail_electric rail_fast ship container cable_car subway aircraft wheelchair scooter drone" speed="13.89" length="8.21" shape="1024.43,1048.38 1022.03,1048.45 1020.39,1048.88 1018.75,1049.30 1016.34,1049.37"/>
        <lane id=":10189040386_0_2" index="2" disallow="pedestrian tram rail_urban rail rail_electric rail_fast ship container cable_car subway aircraft wheelchair scooter drone" speed="13.89" length="8.21" shape="1024.43,1048.38 1022.06,1047.95 1020.51,1047.28 1018.95,1046.61 1016.58,1046.18"/>
    </edge>
    <edge id=":10189040387_0" function="internal">
        <lane id=":10189040387_0_0" index="0" disallow="pedestrian tram rail_urban rail rail_electric rail_fast ship container cable_car subway aircraft wheelchair scooter drone" speed="13.89" length="8.21" shape="710.45,1026.36 708.04,1026.41 706.39,1026.83 704.75,1027.25 702.34,1027.30"/>
        <lane id=":10189040387_0_1" index="1" disallow="pedestrian tram rail_urban rail rail_electric rail_fast ship container cable_car subway aircraft wheelchair scooter drone" speed="13.89" length="8.21" shape="710.71,1023.17 708.30,1023.22 706.65,1023.64 705.01,1024.06 702.60,1024.11"/>
        <lane id=":10189040387_0_2" index="2" disallow="pedestrian tram rail_urban rail rail_electric rail_fast ship container cable_car subway aircraft wheelchair scooter drone" speed="13.89" length="8.21" shape="710.71,1023.17 708.34,1022.72 706.79,1022.05 705.23,1021.37 702.86,1020.92"/>
    </edge>
    <edge id=":10287240229_0" function="internal">
        <lane id=":10287240229_0_0" index="0" disallow="pedestrian tram rail_urban rail rail_electric rail_fast ship container cable_car subway aircraft wheelchair scooter drone" speed="8.33" length="0.36" shape="898.45,476.15 898.30,475.82"/>
    </edge>
    <edge id=":10287240229_1" function="internal">
        <lane id=":10287240229_1_0" index="0" disallow="pedestrian tram rail_urban rail rail_electric rail_fast ship container cable_car subway aircraft wheelchair scooter drone" speed="3.65" length="2.34" shape="898.45,476.15 897.31,475.25 896.98,474.43"/>
    </edge>
    <edge id=":10287240229_3" function="internal">
        <lane id=":10287240229_3_0" index="0" disallow="pedestrian tram rail_urban rail rail_electric rail_fast ship container cable_car subway aircraft wheelchair scooter drone" speed="3.65" length="2.34" shape="896.98,474.43 897.44,473.66 898.70,472.96"/>
    </edge>
    <edge id=":10287240229_2" function="internal">
        <lane id=":10287240229_2_0" index="0" disallow="pedestrian tram rail_urban rail rail_electric rail_fast ship container cable_car subway aircraft wheelchair scooter drone" speed="8.33" length="0.43" shape="898.46,473.31 898.70,472.96"/>
    </edge>
    <edge id=":10287240230_0" function="internal">
        <lane id=":10287240230_0_0" index="0" disallow="pedestrian tram rail_urban rail rail_electric rail_fast ship container cable_car subway aircraft wheelchair scooter drone" speed="8.33" length="0.42" shape="820.65,470.26 820.55,470.22 820.47,470.25 820.38,470.30 820.26,470.33"/>
    </edge>
    <edge id=":10287240230_1" function="internal">
        <lane id=":10287240230_1_0" index="0" disallow="pedestrian tram rail_urban rail rail_electric rail_fast ship container cable_car subway aircraft wheelchair scooter drone" speed="8.33" length="0.68" shape="820.36,467.13 820.91,467.52"/>
    </edge>
    <edge id=":10287240230_2" function="internal">
        <lane id=":10287240230_2_0" index="0" disallow="pedestrian tram rail_urban rail rail_electric rail_fast ship container cable_car subway aircraft wheelchair scooter drone" speed="3.65" length="1.28" shape="820.36,467.13 821.40,467.87"/>
    </edge>
    <edge id=":10287240230_3" function="internal">
        <lane id=":10287240230_3_0" index="0" disallow="pedestrian tram rail_urban rail rail_electric rail_fast ship container cable_car subway aircraft wheelchair scooter drone" speed="3.65" length="3.40" shape="821.40,467.87 821.53,467.96 821.91,468.77 821.48,469.56 820.26,470.33"/>
    </edge>
    <edge id=":10298577286_0" function="internal">
        <lane id=":10298577286_0_0" index="0" disallow="pedestrian tram rail_urban rail rail_electric rail_fast ship container cable_car subway aircraft wheelchair scooter drone" speed="13.89" length="8.21" shape="904.97,1006.16 907.38,1006.12 909.03,1005.71 910.67,1005.31 913.08,1005.27"/>
        <lane id=":10298577286_0_1" index="1" disallow="pedestrian tram rail_urban rail rail_electric rail_fast ship container cable_car subway aircraft wheelchair scooter drone" speed="13.89" length="8.21" shape="904.69,1009.35 907.10,1009.31 908.75,1008.90 910.39,1008.50 912.80,1008.46"/>
        <lane id=":10298577286_0_2" index="2" disallow="pedestrian tram rail_urban rail rail_electric rail_fast ship container cable_car subway aircraft wheelchair scooter drone" speed="13.89" length="8.21" shape="904.69,1009.35 907.06,1009.81 908.61,1010.50 910.16,1011.18 912.52,1011.64"/>
    </edge>
    <edge id=":10556620135_0" function="internal">
        <lane id=":10556620135_0_0" index="0" disallow="pedestrian tram rail_urban rail rail_electric rail_fast ship container cable_car subway aircraft wheelchair scooter drone" speed="8.33" length="3.52" width="6.90" shape="737.24,226.88 737.33,230.40"/>
    </edge>
    <edge id=":10556620135_1" function="internal">
        <lane id=":10556620135_1_0" index="0" disallow="pedestrian tram rail_urban rail rail_electric rail_fast ship container cable_car subway aircraft wheelchair scooter drone" speed="8.33" length="3.53" shape="731.36,226.94 734.47,225.27"/>
    </edge>
    <edge id=":10723176862_0" function="internal">
        <lane id=":10723176862_0_0" index="0" disallow="pedestrian tram rail_urban rail rail_electric rail_fast ship container cable_car subway aircraft wheelchair scooter drone" speed="3.65" length="4.67" shape="546.92,63.91 548.02,62.98 548.90,62.81 549.56,63.41 550.00,64.79"/>
    </edge>
    <edge id=":10880725066_0" function="internal">
        <lane id=":10880725066_0_0" index="0" disallow="pedestrian tram rail_urban rail rail_electric rail_fast ship container cable_car subway aircraft wheelchair scooter drone" speed="13.89" length="8.21" shape="756.25,993.93 758.66,993.85 760.29,993.42 761.93,992.98 764.34,992.91"/>
        <lane id=":10880725066_0_1" index="1" disallow="pedestrian tram rail_urban rail rail_electric rail_fast ship container cable_car subway aircraft wheelchair scooter drone" speed="13.89" length="8.21" shape="756.02,997.12 758.43,997.04 760.06,996.61 761.70,996.18 764.11,996.10"/>
        <lane id=":10880725066_0_2" index="2" disallow="pedestrian tram rail_urban rail rail_electric rail_fast ship container cable_car subway aircraft wheelchair scooter drone" speed="13.89" length="8.21" shape="756.02,997.12 758.39,997.54 759.95,998.21 761.51,998.87 763.88,999.29"/>
    </edge>
    <edge id=":11062133273_0" function="internal">
        <lane id=":11062133273_0_0" index="0" disallow="tram rail_urban rail rail_electric rail_fast ship container cable_car subway aircraft wheelchair scooter drone" speed="6.58" length="3.92" shape="498.53,520.40 497.80,521.10 496.99,521.60 496.09,521.92 495.09,522.06"/>
    </edge>
    <edge id=":11062133273_1" function="internal">
        <lane id=":11062133273_1_0" index="0" disallow="tram rail_urban rail rail_electric rail_fast ship container cable_car subway aircraft wheelchair scooter drone" speed="4.17" length="1.31" shape="494.97,518.86 495.30,518.82 495.60,518.71 495.87,518.54 496.11,518.31"/>
    </edge>
    <edge id=":11124714790_0" function="internal">
        <lane id=":11124714790_0_0" index="0" disallow="pedestrian tram rail_urban rail rail_electric rail_fast ship container cable_car subway aircraft wheelchair scooter drone" speed="8.33" length="8.01" shape="457.09,248.32 449.11,247.70"/>
        <lane id=":11124714790_0_1" index="1" disallow="pedestrian tram rail_urban rail rail_electric rail_fast ship container cable_car subway aircraft wheelchair scooter drone" speed="8.33" length="8.01" shape="457.34,245.13 449.36,244.51"/>
    </edge>
    <edge id=":11124714790_2" function="internal">
        <lane id=":11124714790_2_0" index="0" disallow="pedestrian tram rail_urban rail rail_electric rail_fast ship container cable_car subway aircraft wheelchair scooter drone" speed="8.33" length="8.53" shape="449.86,238.13 452.35,237.82 453.97,236.85 455.58,235.87 458.07,235.56"/>
        <lane id=":11124714790_2_1" index="1" disallow="pedestrian tram rail_urban rail rail_electric rail_fast ship container cable_car subway aircraft wheelchair scooter drone" speed="8.33" length="8.53" shape="449.61,241.32 452.10,241.01 453.72,240.04 455.34,239.06 457.83,238.75"/>
        <lane id=":11124714790_2_2" index="2" disallow="pedestrian tram rail_urban rail rail_electric rail_fast ship container cable_car subway aircraft wheelchair scooter drone" speed="8.33" length="8.53" shape="449.61,241.32 457.58,241.94"/>
    </edge>
    <edge id=":11392391984_0" function="internal">
        <lane id=":11392391984_0_0" index="0" disallow="pedestrian tram rail_urban rail rail_electric rail_fast ship container cable_car subway aircraft wheelchair scooter drone" speed="3.65" length="4.67" shape="38.23,504.24 37.10,503.34 36.77,502.51 37.24,501.75 38.51,501.05"/>
    </edge>
    <edge id=":1141824924_0" function="internal">
        <lane id=":1141824924_0_0" index="0" disallow="pedestrian tram rail_urban rail rail_electric rail_fast ship container cable_car subway aircraft wheelchair scooter drone" speed="8.33" length="8.30" shape="1058.08,293.60 1060.36,293.98 1062.04,293.45 1063.74,292.86 1066.08,293.06"/>
        <lane id=":1141824924_0_1" index="1" disallow="pedestrian tram rail_urban rail rail_electric rail_fast ship container cable_car subway aircraft wheelchair scooter drone" speed="8.33" length="8.30" shape="1056.88,296.57 1059.23,296.98 1060.96,296.47 1062.72,295.89 1065.14,296.12"/>
        <lane id=":1141824924_0_2" index="2" disallow="pedestrian tram rail_urban rail rail_electric rail_fast ship container cable_car subway aircraft wheelchair scooter drone" speed="8.33" length="8.30" shape="1056.88,296.57 1064.19,299.17"/>
        <lane id=":1141824924_0_3" index="3" disallow="pedestrian tram rail_urban rail rail_electric rail_fast ship container cable_car subway aircraft wheelchair scooter drone" speed="8.33" length="8.30" shape="1056.88,296.57 1058.97,297.95 1060.02,299.53 1061.09,301.04 1063.25,302.23"/>
    </edge>
    <edge id=":11646819817_0" function="internal">
        <lane id=":11646819817_0_0" index="0" disallow="tram rail_urban rail rail_electric rail_fast ship container cable_car subway aircraft wheelchair scooter drone" speed="8.04" length="6.67" width="4.00" shape="1384.32,593.59 1383.17,593.54 1381.78,593.92 1380.15,594.73 1378.27,595.97"/>
    </edge>
    <edge id=":11646819817_1" function="internal">
        <lane id=":11646819817_1_0" index="0" disallow="tram rail_urban rail rail_electric rail_fast ship container cable_car subway aircraft wheelchair scooter drone" speed="7.47" length="9.32" shape="1384.32,593.59 1381.61,592.62 1379.65,591.31 1378.44,589.67 1377.98,587.68"/>
    </edge>
    <edge id=":11646819817_2" function="internal">
        <lane id=":11646819817_2_0" index="0" disallow="tram rail_urban rail rail_electric rail_fast ship container cable_car subway aircraft wheelchair scooter drone" speed="8.33" length="9.25" width="4.00" shape="1381.17,587.55 1381.08,590.38 1380.57,592.72 1379.63,594.59 1378.27,595.97"/>
    </edge>
    <edge id=":11646819817_3" function="internal">
        <lane id=":11646819817_3_0" index="0" disallow="tram rail_urban rail rail_electric rail_fast ship container cable_car subway aircraft wheelchair scooter drone" speed="3.65" length="4.67" shape="1381.17,587.55 1380.42,588.78 1379.64,589.21 1378.82,588.84 1377.98,587.68"/>
    </edge>
    <edge id=":11646819817_4" function="internal">
        <lane id=":11646819817_4_0" index="0" disallow="tram rail_urban rail rail_electric rail_fast ship container cable_car subway aircraft wheelchair scooter drone" speed="7.01" length="5.70" shape="1375.92,592.74 1376.87,591.82 1377.53,590.67 1377.90,589.29 1377.98,587.68"/>
    </edge>
    <edge id=":11646819817_5" function="internal">
        <lane id=":11646819817_5_0" index="0" disallow="tram rail_urban rail rail_electric rail_fast ship container cable_car subway aircraft wheelchair scooter drone" speed="4.08" length="5.84" width="4.00" shape="1375.92,592.74 1377.72,592.67 1378.71,593.18 1378.90,594.28 1378.27,595.97"/>
    </edge>
    <edge id=":11720027616_0" function="internal">
        <lane id=":11720027616_0_0" index="0" disallow="tram rail_urban rail rail_electric rail_fast ship container cable_car subway aircraft wheelchair scooter drone" speed="8.33" length="1.83" width="4.70" shape="1338.44,1045.93 1337.08,1047.16"/>
    </edge>
    <edge id=":11720027616_1" function="internal">
        <lane id=":11720027616_1_0" index="0" disallow="tram rail_urban rail rail_electric rail_fast ship container cable_car subway aircraft wheelchair scooter drone" speed="3.13" length="3.43" width="2.35" shape="1338.44,1045.93 1337.75,1046.74 1337.13,1046.96 1336.59,1046.60 1336.11,1045.65"/>
    </edge>
    <edge id=":160493831_0" function="internal">
        <lane id=":160493831_0_0" index="0" disallow="pedestrian tram rail_urban rail rail_electric rail_fast ship container cable_car subway aircraft wheelchair scooter drone" speed="13.89" length="0.26" shape="1515.52,1065.98 1515.86,1066.01"/>
        <lane id=":160493831_0_1" index="1" disallow="pedestrian tram rail_urban rail rail_electric rail_fast ship container cable_car subway aircraft wheelchair scooter drone" speed="13.89" length="0.26" shape="1515.29,1069.17 1515.47,1069.19"/>
    </edge>
    <edge id=":160493838_0" function="internal">
        <lane id=":160493838_0_0" index="0" disallow="pedestrian tram rail_urban rail rail_electric rail_fast ship container cable_car subway aircraft wheelchair scooter drone" speed="13.89" length="0.15" shape="1465.32,1062.26 1465.45,1062.27"/>
        <lane id=":160493838_0_1" index="1" disallow="pedestrian tram rail_urban rail rail_electric rail_fast ship container cable_car subway aircraft wheelchair scooter drone" speed="13.89" length="0.15" shape="1465.05,1065.45 1465.21,1065.46"/>
    </edge>
    <edge id=":160493846_0" function="internal">
        <lane id=":160493846_0_0" index="0" disallow="pedestrian tram rail_urban rail rail_electric rail_fast ship container cable_car subway aircraft wheelchair scooter drone" speed="13.89" length="0.30" shape="1464.19,1078.04 1463.89,1078.02"/>
        <lane id=":160493846_0_1" index="1" disallow="pedestrian tram rail_urban rail rail_electric rail_fast ship container cable_car subway aircraft wheelchair scooter drone" speed="13.89" length="0.30" shape="1464.47,1074.86 1464.18,1074.83"/>
    </edge>
    <edge id=":160493853_0" function="internal">
        <lane id=":160493853_0_0" index="0" disallow="pedestrian tram rail_urban rail rail_electric rail_fast ship container cable_car subway aircraft wheelchair scooter drone" speed="13.89" length="0.27" shape="1514.36,1082.36 1514.12,1082.34"/>
        <lane id=":160493853_0_1" index="1" disallow="pedestrian tram rail_urban rail rail_electric rail_fast ship container cable_car subway aircraft wheelchair scooter drone" speed="13.89" length="0.27" shape="1514.71,1079.18 1514.40,1079.15"/>
    </edge>
    <edge id=":1702616130_0" function="internal">
        <lane id=":1702616130_0_0" index="0" disallow="tram rail_urban rail rail_electric rail_fast ship container cable_car subway aircraft wheelchair scooter drone" speed="6.96" length="10.39" shape="496.05,1108.51 492.87,1108.60 490.53,1109.45 489.01,1111.08 488.34,1113.47"/>
    </edge>
    <edge id=":1702616130_1" function="internal">
        <lane id=":1702616130_1_0" index="0" disallow="tram rail_urban rail rail_electric rail_fast ship container cable_car subway aircraft wheelchair scooter drone" speed="7.99" length="14.21" shape="496.05,1108.51 492.26,1107.64 489.66,1105.77 488.25,1102.89 488.03,1099.00"/>
    </edge>
    <edge id=":1702616130_2" function="internal">
        <lane id=":1702616130_2_0" index="0" disallow="tram rail_urban rail rail_electric rail_fast ship container cable_car subway aircraft wheelchair scooter drone" speed="3.65" length="4.67" shape="496.05,1108.51 494.93,1107.61 494.59,1106.78 495.06,1106.02 496.32,1105.32"/>
    </edge>
    <edge id=":1702616130_3" function="internal">
        <lane id=":1702616130_3_0" index="0" disallow="tram rail_urban rail rail_electric rail_fast ship container cable_car subway aircraft wheelchair scooter drone" speed="6.50" length="9.03" shape="491.22,1099.27 491.36,1101.75 492.25,1103.58 493.91,1104.77 496.32,1105.32"/>
    </edge>
    <edge id=":1702616130_4" function="internal">
        <lane id=":1702616130_4_0" index="0" disallow="tram rail_urban rail rail_electric rail_fast ship container cable_car subway aircraft wheelchair scooter drone" speed="8.33" length="14.50" shape="491.22,1099.27 490.65,1102.89 489.79,1106.37 488.92,1109.86 488.34,1113.47"/>
    </edge>
    <edge id=":1702616130_5" function="internal">
        <lane id=":1702616130_5_0" index="0" disallow="tram rail_urban rail rail_electric rail_fast ship container cable_car subway aircraft wheelchair scooter drone" speed="3.65" length="4.67" shape="491.22,1099.27 490.32,1100.40 489.49,1100.73 488.72,1100.26 488.03,1099.00"/>
    </edge>
    <edge id=":1711812123_0" function="internal">
        <lane id=":1711812123_0_0" index="0" disallow="pedestrian tram rail_urban rail rail_electric rail_fast ship container cable_car subway aircraft wheelchair scooter drone" speed="3.65" length="4.67" shape="-0.12,344.11 -1.26,343.22 -1.60,342.39 -1.13,341.62 0.12,340.92"/>
    </edge>
    <edge id=":1772850068_0" function="internal">
        <lane id=":1772850068_0_0" index="0" disallow="pedestrian tram rail_urban rail rail_electric rail_fast ship container cable_car subway aircraft wheelchair scooter drone" speed="3.65" length="4.67" shape="1591.20,232.11 1589.75,232.17 1588.96,231.75 1588.82,230.87 1589.32,229.52"/>
    </edge>
    <edge id=":1818648896_0" function="internal">
        <lane id=":1818648896_0_0" index="0" disallow="pedestrian tram rail_urban rail rail_electric rail_fast ship container cable_car subway aircraft wheelchair scooter drone" speed="8.33" length="8.00" shape="829.51,276.67 821.54,276.06"/>
        <lane id=":1818648896_0_1" index="1" disallow="pedestrian tram rail_urban rail rail_electric rail_fast ship container cable_car subway aircraft wheelchair scooter drone" speed="8.33" length="8.00" shape="829.76,273.48 821.78,272.87"/>
    </edge>
    <edge id=":1818648896_2" function="internal">
        <lane id=":1818648896_2_0" index="0" disallow="pedestrian tram rail_urban rail rail_electric rail_fast ship container cable_car subway aircraft wheelchair scooter drone" speed="8.33" length="8.54" shape="822.26,266.49 824.76,266.18 826.37,265.20 827.99,264.22 830.49,263.91"/>
        <lane id=":1818648896_2_1" index="1" disallow="pedestrian tram rail_urban rail rail_electric rail_fast ship container cable_car subway aircraft wheelchair scooter drone" speed="8.33" length="8.54" shape="822.02,269.68 824.51,269.37 826.13,268.39 827.75,267.41 830.24,267.10"/>
        <lane id=":1818648896_2_2" index="2" disallow="pedestrian tram rail_urban rail rail_electric rail_fast ship container cable_car subway aircraft wheelchair scooter drone" speed="8.33" length="8.54" shape="822.02,269.68 830.00,270.29"/>
    </edge>
    <edge id=":1818648902_0" function="internal">
        <lane id=":1818648902_0_0" index="0" disallow="pedestrian tram rail_urban rail rail_electric rail_fast ship container cable_car subway aircraft wheelchair scooter drone" speed="6.86" length="10.18" width="4.00" shape="894.67,284.84 891.79,285.01 889.67,285.99 888.30,287.79 887.69,290.41"/>
    </edge>
    <edge id=":1818648902_1" function="internal">
        <lane id=":1818648902_1_0" index="0" disallow="pedestrian tram rail_urban rail rail_electric rail_fast ship container cable_car subway aircraft wheelchair scooter drone" speed="8.33" length="20.25" shape="894.67,284.84 888.77,283.89 884.83,282.49 880.92,281.10 875.06,280.17"/>
        <lane id=":1818648902_1_1" index="1" disallow="pedestrian tram rail_urban rail rail_electric rail_fast ship container cable_car subway aircraft wheelchair scooter drone" speed="8.33" length="20.25" shape="894.92,281.65 889.01,280.70 885.07,279.30 881.15,277.91 875.29,276.98"/>
    </edge>
    <edge id=":1818648902_3" function="internal">
        <lane id=":1818648902_3_0" index="0" disallow="pedestrian tram rail_urban rail rail_electric rail_fast ship container cable_car subway aircraft wheelchair scooter drone" speed="9.78" length="5.54" shape="895.16,278.46 889.97,277.12 889.83,277.00"/>
    </edge>
    <edge id=":1818648902_4" function="internal">
        <lane id=":1818648902_4_0" index="0" disallow="pedestrian tram rail_urban rail rail_electric rail_fast ship container cable_car subway aircraft wheelchair scooter drone" speed="3.65" length="1.44" shape="895.16,278.46 894.02,277.57"/>
    </edge>
    <edge id=":1818648902_18" function="internal">
        <lane id=":1818648902_18_0" index="0" disallow="pedestrian tram rail_urban rail rail_electric rail_fast ship container cable_car subway aircraft wheelchair scooter drone" speed="9.78" length="16.42" shape="889.83,277.00 886.46,273.99 884.63,269.10 884.48,262.43"/>
    </edge>
    <edge id=":1818648902_19" function="internal">
        <lane id=":1818648902_19_0" index="0" disallow="pedestrian tram rail_urban rail rail_electric rail_fast ship container cable_car subway aircraft wheelchair scooter drone" speed="3.65" length="3.23" shape="894.02,277.57 893.69,276.75 894.15,275.98 895.40,275.27"/>
    </edge>
    <edge id=":1818648902_5" function="internal">
        <lane id=":1818648902_5_0" index="0" disallow="pedestrian tram rail_urban rail rail_electric rail_fast ship container cable_car subway aircraft wheelchair scooter drone" speed="7.25" length="11.63" shape="890.86,262.96 890.85,266.79 891.65,269.59 893.25,271.35 895.65,272.08"/>
    </edge>
    <edge id=":1818648902_6" function="internal">
        <lane id=":1818648902_6_0" index="0" disallow="pedestrian tram rail_urban rail rail_electric rail_fast ship container cable_car subway aircraft wheelchair scooter drone" speed="13.89" length="27.63" width="4.00" shape="890.86,262.96 887.69,290.41"/>
    </edge>
    <edge id=":1818648902_7" function="internal">
        <lane id=":1818648902_7_0" index="0" disallow="pedestrian tram rail_urban rail rail_electric rail_fast ship container cable_car subway aircraft wheelchair scooter drone" speed="9.76" length="8.12" shape="887.67,262.70 886.37,269.24 885.68,270.51"/>
    </edge>
    <edge id=":1818648902_8" function="internal">
        <lane id=":1818648902_8_0" index="0" disallow="pedestrian tram rail_urban rail rail_electric rail_fast ship container cable_car subway aircraft wheelchair scooter drone" speed="3.65" length="1.44" shape="887.67,262.70 886.77,263.82"/>
    </edge>
    <edge id=":1818648902_20" function="internal">
        <lane id=":1818648902_20_0" index="0" disallow="pedestrian tram rail_urban rail rail_electric rail_fast ship container cable_car subway aircraft wheelchair scooter drone" speed="9.76" length="13.19" shape="885.68,270.51 883.87,273.81 880.18,276.39 875.29,276.98"/>
    </edge>
    <edge id=":1818648902_21" function="internal">
        <lane id=":1818648902_21_0" index="0" disallow="pedestrian tram rail_urban rail rail_electric rail_fast ship container cable_car subway aircraft wheelchair scooter drone" speed="3.65" length="3.23" shape="886.77,263.82 885.94,264.16 885.18,263.69 884.48,262.43"/>
    </edge>
    <edge id=":1818648902_9" function="internal">
        <lane id=":1818648902_9_0" index="0" disallow="pedestrian tram rail_urban rail rail_electric rail_fast ship container cable_car subway aircraft wheelchair scooter drone" speed="7.19" length="11.08" shape="875.99,267.41 879.51,267.31 882.10,266.45 883.76,264.82 884.48,262.43"/>
    </edge>
    <edge id=":1818648902_10" function="internal">
        <lane id=":1818648902_10_0" index="0" disallow="pedestrian tram rail_urban rail rail_electric rail_fast ship container cable_car subway aircraft wheelchair scooter drone" speed="8.33" length="20.29" shape="875.99,267.41 881.91,268.34 885.86,269.73 889.79,271.13 895.65,272.08"/>
        <lane id=":1818648902_10_1" index="1" disallow="pedestrian tram rail_urban rail rail_electric rail_fast ship container cable_car subway aircraft wheelchair scooter drone" speed="8.33" length="20.29" shape="875.75,270.60 881.67,271.53 885.62,272.92 889.54,274.32 895.40,275.27"/>
    </edge>
    <edge id=":1818648902_12" function="internal">
        <lane id=":1818648902_12_0" index="0" disallow="pedestrian tram rail_urban rail rail_electric rail_fast ship container cable_car subway aircraft wheelchair scooter drone" speed="10.14" length="6.17" width="4.00" shape="875.52,273.79 881.29,275.19 881.47,275.34"/>
    </edge>
    <edge id=":1818648902_13" function="internal">
        <lane id=":1818648902_13_0" index="0" disallow="pedestrian tram rail_urban rail rail_electric rail_fast ship container cable_car subway aircraft wheelchair scooter drone" speed="3.65" length="1.44" shape="875.52,273.79 876.66,274.67"/>
    </edge>
    <edge id=":1818648902_22" function="internal">
        <lane id=":1818648902_22_0" index="0" disallow="pedestrian tram rail_urban rail rail_electric rail_fast ship container cable_car subway aircraft wheelchair scooter drone" speed="10.14" length="17.29" width="4.00" shape="881.47,275.34 885.24,278.43 887.37,283.50 887.69,290.41"/>
    </edge>
    <edge id=":1818648902_23" function="internal">