<?xml version="1.0" encoding="UTF-8"?>

<!-- generated on 2024-12-14 12:36:05.661349 by randomTrips.py UNKNOWN
<configuration>
    <net-file value="osm.net.xml.gz"/>
    <output-trip-file value="osm.passenger.trips.xml"/>
    <route-file value="osm.passenger.rou.xml"/>
    <prefix value="veh"/>
    <trip-attributes value="departLane=&quot;best&quot;"/>
    <fringe-start-attributes value="departSpeed=&quot;max&quot;"/>
    <vehicle-class value="passenger"/>
    <lanes value="True"/>
    <fringe-factor value="5"/>
    <allow-fringe.min-length value="1000.0"/>
    <via-edge-types value="highway.motorway,highway.motorway_link,highway.trunk_link,highway.primary_link,highway.secondary_link,highway.tertiary_link"/>
    <min-distance value="300.0"/>
    <min-distance.fringe value="10.0"/>
    <remove-loops value="True"/>
    <validate value="True"/>
    <insertion-density value="100.0"/>
</configuration>
-->

<!-- generated on 2024-12-14 12:36:05 by Eclipse SUMO duarouter Version 1.20.0
<configuration xmlns:xsi="http://www.w3.org/2001/XMLSchema-instance" xsi:noNamespaceSchemaLocation="http://sumo.dlr.de/xsd/duarouterConfiguration.xsd">

    <input>
        <net-file value="osm.net.xml.gz"/>
        <route-files value="osm.passenger.trips.xml"/>
    </input>

    <output>
        <output-file value="osm.passenger.rou.xml"/>
        <alternatives-output value="NUL"/>
    </output>

    <processing>
        <remove-loops value="true"/>
    </processing>

    <time>
        <begin value="0.0"/>
        <end value="3600.0"/>
    </time>

    <report>
        <no-warnings value="true"/>
        <ignore-errors value="true"/>
        <no-step-log value="true"/>
    </report>

</configuration>
-->

<routes xmlns:xsi="http://www.w3.org/2001/XMLSchema-instance" xsi:noNamespaceSchemaLocation="http://sumo.dlr.de/xsd/routes_file.xsd">
    <vType id="veh_passenger" vClass="passenger"/>
    <vehicle id="veh0" type="veh_passenger" depart="0.00" departLane="best">
        <route edges="22972470#0 1116358457#0 1073015936 -1132164217#2 -1132163645#2 196850607#0 -1190781965 -196850605#1 196850609#0 882389497#0 194069450#0 461526153#0 188386313#0 1119935543#0 1119936840#0 4402037#0 -1119938072#1"/>
    </vehicle>
    <vehicle id="veh1" type="veh_passenger" depart="0.85" departLane="best">
        <route edges="1199404285 707100745#0 -1132164893#3 -168935757#3 -1228446781#4 753316505#0 1110748916#0 1155757393#0 -326116286#2 -24913267#3 -155186522#1 1119936840#0 1119937599#2 530085625#0 -108031933#2 -437325055#2"/>
    </vehicle>
    <vehicle id="veh2" type="veh_passenger" depart="1.71" departLane="best">
        <route edges="327462543#0 199847252#0 -1132164282#1 -1132164217#2 -1132163645#2 196850607#0 -1190781965 1190781963#0 389101365#0 66071366#0 66071366#4 1127602336 -831860725#2 734578686 15973619#0 15973619#9 -24509317#2 4611714#2 24509318"/>
    </vehicle>
    <vehicle id="veh3" type="veh_passenger" depart="2.56" departLane="best">
        <route edges="-4597324#2 1151333059#0 1263480787#0 43233756#0 292429056#0 1190781963#0 389101365#0 66071366#0 66071366#4 1126241276#0"/>
    </vehicle>
    <vehicle id="veh4" type="veh_passenger" depart="3.42" departLane="best">
        <route edges="1151333058#0 1073015940#0 -1132164282#1 -1132164217#2 -1132163645#2 196850607#0 -1190781965 -196850605#1 196850609#0 882389497#0 194069450#0 461526152#0 1126234503#0 1126237668#0 1217865061#0 114667396#0"/>
    </vehicle>
    <vehicle id="veh5" type="veh_passenger" depart="4.27" departLane="best">
        <route edges="-1110750064 1110749336#0 -753316505#2 1228446781#0 168935757#0 4588224#0 110785555#0 327462543#0 -81113584#2 199847241#0 435164424#0 458953718#0 23755720#0 23755718#0 508410319#0 -375459781#1"/>
    </vehicle>
    <vehicle id="veh6" type="veh_passenger" depart="5.12" departLane="best">
        <route edges="236092221#0 342968607#0 1170522572#0 -194069450#2 -882389497#1 171423001#0 1190781964"/>
    </vehicle>
    <vehicle id="veh7" type="veh_passenger" depart="5.98" departLane="best">
        <route edges="-389101365#3 -35557143#5 -196850605#1 196850609#0 882389497#0 194069450#0 461526153#0 188386313#0 1119935543#0 155186522#0"/>
    </vehicle>
    <vehicle id="veh9" type="veh_passenger" depart="7.69" departLane="best">
        <route edges="375311157#0 -375311155#2 -67099789#2 199847252#0 -1132164282#1 -1132164217#2 -1132163645#2 196850607#0 -1190781965 -196850605#1 196850609#0 882389497#0 194069450#0 461526152#0 1126234503#0 1126237668#0 340498982#0 1170522567#0 251884680#0 251884680#1 -4611694#2 305153173"/>
    </vehicle>
    <vehicle id="veh10" type="veh_passenger" depart="8.54" departLane="best">
        <route edges="67099789#0 375311155#0 16374191#0 375311156#0 -375311158#4 -1105574289#2 -35557161#4 -35557161#3 4611708#0 1105574290 1127602092#1 734578686 15973619#0 15973619#9 -24509317#2 4611714#2 1009114665#0"/>
    </vehicle>
    <vehicle id="veh11" type="veh_passenger" depart="9.39" departLane="best">
        <route edges="28251222#0 1149417521#2 1217865061#0 1217865061#1 1077923225#0 882389494#0 340498988#0 188386313#0 1119935543#0 155186522#0 24913267#0 326116286#0 4402014#0 326116285#0 -1303648806#2"/>
    </vehicle>
    <vehicle id="veh12" type="veh_passenger" depart="10.25" departLane="best">
        <route edges="43376693#0 1151333058#0 1073015940#0 -1132164282#1 -1132164217#2 -1132163645#2 196850607#0 -1190781965 -196850605#1 196850609#0 882389497#0 194069450#0 461526153#0 169999355#0"/>
    </vehicle>
    <vehicle id="veh13" type="veh_passenger" depart="11.10" departLane="best">
        <route edges="375311157#0 884209962#0 -375459782#1 -1105574289#2 -35557161#4 -35557161#3 -35557161#2"/>
    </vehicle>
    <vehicle id="veh14" type="veh_passenger" depart="11.96" departLane="best">
        <route edges="1199404285 707100745#0 110785555#0 327462543#0 199847252#0 -1132164282#1 -1132164217#2 -1132163645#2 196850607#0 -1190781965 1190781963#0 389101365#0 66071366#0 66071366#4 1127602336 -831860725#2"/>
    </vehicle>
    <vehicle id="veh15" type="veh_passenger" depart="12.81" departLane="best">
        <route edges="1105574289#0 1151333058#0 1073015940#0 199847247#0 -327462543#2 -1132164863 -16374393#1 -505526660#1"/>
    </vehicle>
    <vehicle id="veh17" type="veh_passenger" depart="14.52" departLane="best">
        <route edges="-4402014#3 -4588220#2 292429056#0 1190781963#0 389101365#0 66071366#0 66071366#4 1127602336 -831860725#2 734578686 15973619#0 4611718#0 147066248#0"/>
    </vehicle>
    <vehicle id="veh18" type="veh_passenger" depart="15.37" departLane="best" departSpeed="max">
        <route edges="30805074#0 24240246#0 1125871619#3 236092221#0 342968607#0 1170522572#0 -194069450#2 -882389497#1 171423001#0 1190781964 42102542#0 196850608#0 1132163645#0 1132163645#3 1132164217#4 199847247#0 -327462543#2 -1132164863"/>
    </vehicle>
    <vehicle id="veh19" type="veh_passenger" depart="16.23" departLane="best">
        <route edges="4401967#0 335462916 85255870#0 85255869#0 1110752486 1110752772 335462921#0 -505526660#1"/>
    </vehicle>
    <vehicle id="veh20" type="veh_passenger" depart="17.08" departLane="best" departSpeed="max">
        <route edges="-1151333062#1 -65040946#7 -435164424#1 199847244#0 81113584#0 199847252#0 -1132164282#1 -1132164217#2 -1132163645#2 196850607#0 -1190781965 -196850605#1 196850609#0 882389497#0 194069450#0 461526153#0 188386313#0 1119935543#0 1119936840#0 4402037#0"/>
    </vehicle>
    <vehicle id="veh21" type="veh_passenger" depart="17.94" departLane="best">
        <route edges="-1228769796#1 4597325#0 -1110752632#3 -85255869#2 1263480787#0 43233756#0 292429056#0 1190781963#0 389101365#0 66071366#0 66071366#4 1127602336 -831860725#2 734578686 15973619#0 4611718#0"/>
    </vehicle>
    <vehicle id="veh23" type="veh_passenger" depart="19.64" departLane="best">
        <route edges="1077923225#0 882389494#0 340498988#0 188386313#0 1119935543#0 1119936840#0 1119937599#2 530085625#0 -108031933#2 -437325055#2"/>
    </vehicle>
    <vehicle id="veh24" type="veh_passenger" depart="20.50" departLane="best">
        <route edges="-461526153#1 -194069450#2 -882389497#1 171423001#0 1190781964 42102542#0 196850608#0 1132163645#0 1132163645#3 1132164217#4 199847247#0 -81113584#2 199847241#0 435164424#0 1132166702#0 67627350#0"/>
    </vehicle>
    <vehicle id="veh25" type="veh_passenger" depart="21.35" departLane="best">
        <route edges="236092221#0 342968607#0 1170522572#0 461526153#0 169999355#0"/>
    </vehicle>
    <vehicle id="veh26" type="veh_passenger" depart="22.21" departLane="best" departSpeed="max">
        <route edges="-24509318 -4611714#8 24509317#0 -15973619#9 -15973619#8 -1233790389 831860725#0 -23755950#2 -1159149106#1 -474362271 448810728 4610524#0 1261128304 1101961674#0"/>
    </vehicle>
    <vehicle id="veh27" type="veh_passenger" depart="23.06" departLane="best">
        <route edges="882389494#0 340498988#0 -461526153#1 -194069450#2 -882389497#1 171423001#0 1190781964 1190781963#0 389101365#0 66071366#0 66071366#4 1126241276#0 4611713 1252995263 23017853"/>
    </vehicle>
    <vehicle id="veh28" type="veh_passenger" depart="23.91" departLane="best">
        <route edges="1238797610#0 1252995263 23017853 -1151333056 4611710#0 -35557161#3 -35557161#2 -389101365#3 -35557143#5 -1190781962#1 1155757393#0 -326116286#2 -24913267#3"/>
    </vehicle>
    <vehicle id="veh29" type="veh_passenger" depart="24.77" departLane="best">
        <route edges="43233756#0 -168935756#2 -753316505#2 1228446781#0 168935757#0 4588224#0 110785555#0 327462543#0 67099789#0 375311155#0 16374191#0 375311156#0"/>
    </vehicle>
    <vehicle id="veh30" type="veh_passenger" depart="25.62" departLane="best">
        <route edges="-4401967#2 -335462874#2 -4402014#3 -326116286#2 -24913267#3 342968607#0 1170522572#0 461526152#0 1126234503#0 1126237668#0 340498982#0 1170522567#0 251884680#0 4611707#0 -1126465423"/>
    </vehicle>
    <vehicle id="veh31" type="veh_passenger" depart="26.48" departLane="best" departSpeed="max">
        <route edges="-67627350#1 -67627353#1 -435164424#1 199847244#0 81113584#0 199847252#0 -1132164282#1 -1132164217#2 -1132163645#2 196850607#0 -1190781965 1190781963#0 389101365#0 66071366#0 66071366#4 1126241276#0 -4611708#2"/>
    </vehicle>
    <vehicle id="veh32" type="veh_passenger" depart="27.33" departLane="best">
        <route edges="-375311155#2 -67099789#2 -327462543#2 -1132164863 -1132164893#3 -168935757#3 -1228446781#4 753316505#0 1110748916#0 -1155762025#2 681299268#0"/>
    </vehicle>
    <vehicle id="veh33" type="veh_passenger" depart="28.18" departLane="best">
        <route edges="-4611718#1 -4611718#0 -15973619#8 -1233790389 831860725#0 -23755950#2 -66071366#4 -66071366#3 -389101365#3 -35557143#5 -1190781962#1 -1155762025#2 -23755739#3 -1079386620#3 4597324#0 -4597322#1"/>
    </vehicle>
    <vehicle id="veh34" type="veh_passenger" depart="29.04" departLane="best">
        <route edges="15973619#9 -24509317#2 -4611714#1 1238797610#0 1252995263 -4611711#1 -23755961#1 1105574289#0 1151333058#0 1073015940#0 665241888#0 4588224#0 65040958#0"/>
    </vehicle>
    <vehicle id="veh35" type="veh_passenger" depart="29.89" departLane="best" departSpeed="max">
        <route edges="1110746456 1151333059#0 1263480787#0 43233756#0 1155757393#0 -326116286#2 -24913267#3 -155186522#1 1119936840#0 1119937599#2 530085625#0 -108031933#2 -437325055#2"/>
    </vehicle>
    <vehicle id="veh37" type="veh_passenger" depart="31.60" departLane="best">
        <route edges="1159149106#0 -66071366#4 -66071366#3 -389101365#3 -35557143#5 42102542#0 196850608#0 1132163645#0 1132163645#3 1132164217#4 199847247#0 -327462543#2 -1132164863"/>
    </vehicle>
    <vehicle id="veh38" type="veh_passenger" depart="32.45" departLane="best" departSpeed="max">
        <route edges="-1302053249 1159149106#0 -66071366#4 -66071366#3 -389101365#3 -35557143#5 42102542#0 196850608#0 1132163645#0 1132163645#3 1132164217#4 199847247#0 -81113584#2 199847241#0"/>
    </vehicle>
    <vehicle id="veh39" type="veh_passenger" depart="33.31" departLane="best">
        <route edges="-1136657258#1 1110748916#0 1155757393#0 -326116286#2 -24913267#3 342968607#0 1170522572#0 461526152#0 1126234503#0 1126237668#0 340498982#0 1170522567#0 1101961674#0"/>
    </vehicle>
    <vehicle id="veh41" type="veh_passenger" depart="35.02" departLane="best">
        <route edges="753316506#0 753316505#0 1110748916#0 292429056#0 1190781963#0 389101365#0 66071366#0 66071366#4 1127602336 -831860725#2 734578686 15973619#0 4611718#0"/>
    </vehicle>
    <vehicle id="veh42" type="veh_passenger" depart="35.87" departLane="best">
        <route edges="1125869405#0 38912785#0 24240246#0 1125871619#3 236092221#0 342968607#0 1170522572#0 461526152#0 1126234503#0 1126237668#0 340498982#0"/>
    </vehicle>
    <vehicle id="veh43" type="veh_passenger" depart="36.72" departLane="best" departSpeed="max">
        <route edges="-1302053249 1159149106#0 -66071366#4 4773029#0 28251222#0 1149417521#2 1217865061#0 1217865061#1 1077923225#0 882389494#0 340498988#0 188386313#0 1119935543#0 1119936840#0 132600840#0 1125871619#3"/>
    </vehicle>
    <vehicle id="veh44" type="veh_passenger" depart="37.58" departLane="best">
        <route edges="1126237668#0 1217865061#0 1217865061#1 1077923225#0 882389494#0 340498988#0 188386313#0 1119935543#0 155186522#0 24913267#0 326116286#0 -4588220#2 -168935756#2 -753316505#2 1228446781#0 168935757#0 4588224#0 -16374393#1 707107510#0"/>
    </vehicle>
    <vehicle id="veh45" type="veh_passenger" depart="38.43" departLane="best">
        <route edges="4588217#0 -4588220#2 292429056#0 1190781963#0 389101365#0 66071366#0 66071366#4 1127602336 4611696#1"/>
    </vehicle>
    <vehicle id="veh47" type="veh_passenger" depart="40.14" departLane="best">
        <route edges="4611706#0 -389101365#3 -35557143#5 42102542#0 196850608#0 1132163645#0 1132163645#3 47707170#2"/>
    </vehicle>
    <vehicle id="veh48" type="veh_passenger" depart="41.00" departLane="best" departSpeed="max">
        <route edges="168515533#0 1123184403 375312063#0 110786129#0 375311157#0 -375311155#2 -67099789#2 -327462543#2 -1132164863 -1132164893#3 -168935757#3 -1228446781#4 753316505#0 1110748916#0 1155757393#0 -326116286#2 -24913267#3"/>
    </vehicle>
    <vehicle id="veh49" type="veh_passenger" depart="41.85" departLane="best">
        <route edges="-35557161#2 -389101365#3 -35557143#5 -1190781962#1 1155757393#0 -326116286#2 -24913267#3 342968607#0 1170522572#0"/>
    </vehicle>
    <vehicle id="veh50" type="veh_passenger" depart="42.70" departLane="best" departSpeed="max">
        <route edges="356359316#0 1199404285 707100745#0 -1132164893#3 -168935757#3 -1228446781#4 753316505#0 1110748916#0 1155757393#0"/>
    </vehicle>
    <vehicle id="veh51" type="veh_passenger" depart="43.56" departLane="best" departSpeed="max">
        <route edges="-1009114665#1 -4611714#8 -4611714#1 1238797610#0 1252995263 -4611711#1 -23755961#1 1105574289#0 1151333058#0 1073015940#0 199847247#0 -81113584#2"/>
    </vehicle>
    <vehicle id="veh52" type="veh_passenger" depart="44.41" departLane="best" departSpeed="max">
        <route edges="-1101961674#1 1149417521#0 1149417521#2 1217865061#0 1217865061#1 1077923225#0 882389494#0 340498988#0 -461526153#1 -194069450#2 -882389497#1 171423001#0 1190781964 42102542#0 196850608#0 1132163645#0 1132163645#3 1132164217#4 199847247#0 -81113584#2 199847241#0 435164424#0 67099797#0"/>
    </vehicle>
    <vehicle id="veh53" type="veh_passenger" depart="45.27" departLane="best" departSpeed="max">
        <route edges="-67099797#1 -435164424#1 199847244#0 81113584#0 199847252#0 -1136657265#1"/>
    </vehicle>
    <vehicle id="veh54" type="veh_passenger" depart="46.12" departLane="best" departSpeed="max">
        <route edges="-114667396#2 1217865061#1 1077923225#0 882389494#0 340498988#0 -461526153#1 -194069450#2 -882389497#1 171423001#0 1190781964 42102542#0 196850608#0 1132163645#0 1132163645#3 1132164217#4 199847247#0 67099789#0 375311155#0 16374191#0 375311156#0 1123184404#0 375311154#0 375311154#1"/>
    </vehicle>
    <vehicle id="veh55" type="veh_passenger" depart="46.97" departLane="best">
        <route edges="35557161#4 1105574289#0 1151333058#0 1073015940#0 665241888#0 -168935757#3"/>
    </vehicle>
    <vehicle id="veh57" type="veh_passenger" depart="48.68" departLane="best">
        <route edges="4611718#1 1238797610#0 1252995263 -4611711#1 4611712#0 43376693#0 375311158#0 1123184404#0 375311154#0 25945760#0 -508410319#2 508410318#0"/>
    </vehicle>
    <vehicle id="veh58" type="veh_passenger" depart="49.54" departLane="best">
        <route edges="1199404285 707100745#0 110785555#0 327462543#0 199847252#0 -1132164282#1 -1132164217#2 -1132163645#2 196850607#0 -1190781965 1190781963#0 389101365#0 35557161#0"/>
    </vehicle>
    <vehicle id="veh59" type="veh_passenger" depart="50.39" departLane="best">
        <route edges="335462916 85255870#0 85255869#0 1110752486 1110752772 335462921#0 707100745#0 110785555#0 327462543#0 67099789#0"/>
    </vehicle>
    <vehicle id="veh61" type="veh_passenger" depart="52.10" departLane="best">
        <route edges="1123184403 375312063#0 -375311158#4 1151333058#0"/>
    </vehicle>
    <vehicle id="veh62" type="veh_passenger" depart="52.95" departLane="best" departSpeed="max">
        <route edges="-153698380#2 1119936840#0 1119937599#2 530085625#0 -108031933#2 -437325055#2"/>
    </vehicle>
    <vehicle id="veh63" type="veh_passenger" depart="53.81" departLane="best" departSpeed="max">
        <route edges="-840229277#1 -1132163645#2 196850607#0 -1190781965 -196850605#1 196850609#0 882389497#0 194069450#0 461526153#0 188386313#0 1119935543#0 155186522#0"/>
    </vehicle>
    <vehicle id="veh64" type="veh_passenger" depart="54.66" departLane="best">
        <route edges="-4401967#2 -335462874#2 -4402014#3 -326116286#2 -24913267#3 -155186522#1 1119936840#0 1119937599#2 530085625#0 -108031933#2 -437325055#2"/>
    </vehicle>
    <vehicle id="veh65" type="veh_passenger" depart="55.51" departLane="best" departSpeed="max">
        <route edges="-114667396#2 1217865061#1 1077923225#0 882389494#0 340498988#0 -461526153#1 -194069450#2 -882389497#1 171423001#0 1190781964 42102542#0 196850608#0 1132163645#0 1132163645#3 1132164217#4 199847247#0"/>
    </vehicle>
    <vehicle id="veh67" type="veh_passenger" depart="57.22" departLane="best">
        <route edges="-4597324#2 1151333059#0 1263480787#0 43233756#0 1155757393#0 -326116286#2 -24913267#3 -155186522#1 1119936840#0 1119937599#2 530085625#0 38912785#0 24240246#0"/>
    </vehicle>
    <vehicle id="veh68" type="veh_passenger" depart="58.08" departLane="best">
        <route edges="-375311158#4 1151333058#0 1073015940#0 -1132164282#1 -1132164217#2 -1132163645#2 196850607#0 -1190781965 -196850605#1 196850609#0 882389497#0 194069450#0"/>
    </vehicle>
    <vehicle id="veh69" type="veh_passenger" depart="58.93" departLane="best">
        <route edges="47707170#2 1187575246 -1228446781#4 753316505#0 1110748916#0 292429056#0 1190781963#0 389101365#0 66071366#0 66071366#4 1126241276#0 4611713 1252995263"/>
    </vehicle>
    <vehicle id="veh70" type="veh_passenger" depart="59.78" departLane="best" departSpeed="max">
        <route edges="1126245113 15971197 4611699#0 1149417521#0 -1171295120#1 -4773029#4 -66071366#3 35557161#0 35557161#3 35557161#4 1105574289#0 375311158#0"/>
    </vehicle>
    <vehicle id="veh71" type="veh_passenger" depart="60.64" departLane="best">
        <route edges="375311157#0 -375311155#2 -67099789#2 -327462543#2 -1132164863 -16374393#1 -505526660#1 -356359316#3"/>
    </vehicle>
    <vehicle id="veh72" type="veh_passenger" depart="61.49" departLane="best">
        <route edges="42102542#0 196850608#0 1132163645#0 1132163645#3 1132164217#4 199847247#0 67099789#0 375311155#0 16374191#0 375311156#0 1123184404#0"/>
    </vehicle>
    <vehicle id="veh73" type="veh_passenger" depart="62.35" departLane="best">
        <route edges="1119937599#2 530085625#0 38912785#0 24240246#0 1125871619#3 236092221#0 24913267#0 326116286#0 -4588220#2 -168935756#2 -753316505#2 1228446781#0 82488124#0 82488125#0 1126488562"/>
    </vehicle>
    <vehicle id="veh74" type="veh_passenger" depart="63.20" departLane="best" departSpeed="max">
        <route edges="320462164#0 4401967#0 335462916 85255870#0 1263480787#0 43233756#0 292429056#0 1190781963#0 389101365#0 66071366#0 66071366#4 1127602336 -831860725#2 734578686 15973619#0 15973619#9 -24509317#2"/>
    </vehicle>
    <vehicle id="veh75" type="veh_passenger" depart="64.05" departLane="best">
        <route edges="1110748916#0 292429056#0 1190781963#0 389101365#0 66071366#0 66071366#4 1127602336 -831860725#2 734578686 15973619#0 15973619#9 -24509317#2 4611714#2 1009114665#0"/>
    </vehicle>
    <vehicle id="veh76" type="veh_passenger" depart="64.91" departLane="best">
        <route edges="4402014#0 326116285#0 4401967#0 335462916 85255870#0 -1079386620#3 4597324#0 -4597322#1"/>
    </vehicle>
    <vehicle id="veh77" type="veh_passenger" depart="65.76" departLane="best" departSpeed="max">
        <route edges="-327756257#2 -23755720#3 -65040946#7 -435164424#1 199847244#0 81113584#0 199847252#0 -1132164282#1 -1132164217#2 -1132163645#2 196850607#0 -1190781965 -196850605#1 196850609#0 882389497#0 194069450#0 461526152#0 1126234503#0 1126237668#0 340498982#0 1170522567#0 251884680#0 251884680#1 1126246695#1 339201217 1126244314#0"/>
    </vehicle>
    <vehicle id="veh78" type="veh_passenger" depart="66.62" departLane="best">
        <route edges="1119937599#2 530085625#0 38912785#0 24240246#0 1125871619#3 236092221#0 342968607#0 1170522572#0 461526152#0 1126234503#0 1126237668#0 340498982#0 1170522567#0 251884680#0 4611707#0 1195359141 4611693#2 -831860725#2 734578686 15973619#0 4611718#0"/>
    </vehicle>
    <vehicle id="veh79" type="veh_passenger" depart="67.47" departLane="best">
        <route edges="-4611696#5 -4611696#3 -23755950#2 -66071366#4 -66071366#3 -389101365#3 -35557143#5 42102542#0 196850608#0 1132163645#0 1132163645#3 1132164217#4 199847247#0 67099789#0"/>
    </vehicle>
    <vehicle id="veh80" type="veh_passenger" depart="68.33" departLane="best">
        <route edges="375311156#0 -375311158#4 -1105574289#2 -35557161#4 -35557161#3 4611708#0 1105574290 1127602092#1 734578686 15973619#0 4611718#0"/>
    </vehicle>
    <vehicle id="veh81" type="veh_passenger" depart="69.18" departLane="best">
        <route edges="1217865061#0 1217865061#1 1077923225#0 882389494#0 340498988#0 -461526153#1 -194069450#2 -882389497#1 171423001#0 1190781964 42102542#0 196850608#0 1132163645#0 1132163645#3 1132164217#4 199847247#0 -81113584#2 199847241#0 435164424#0 1132166702#0 -1132166349#1"/>
    </vehicle>
    <vehicle id="veh82" type="veh_passenger" depart="70.03" departLane="best">
        <route edges="98399537 1105574292#0 191556835#0 -1228446781#4 753316505#0 1110748916#0 1155757393#0 -326116286#2 -24913267#3 342968607#0 1170522572#0 461526152#0 1126234503#0 1126237668#0 340498982#0 1170522567#0 251884680#0 4611707#0 1195359141 4611693#2"/>
    </vehicle>
    <vehicle id="veh83" type="veh_passenger" depart="70.89" departLane="best">
        <route edges="-753316505#2 1228446781#0 168935757#0 4588224#0 110785555#0 327462543#0 -81113584#2 199847241#0 435164424#0 67099797#0"/>
    </vehicle>
    <vehicle id="veh84" type="veh_passenger" depart="71.74" departLane="best">
        <route edges="435164424#0 1132166702#0 -1132166349#1 -65040958#2 -16374393#1 -1110753055#3 -710761407#2 -1110752632#3 -85255869#2 -85255870#2 -335462916"/>
    </vehicle>
    <vehicle id="veh85" type="veh_passenger" depart="72.60" departLane="best">
        <route edges="-1132164217#2 -1132163645#2 196850607#0 -1190781965 -196850605#1 196850609#0 882389497#0 194069450#0 461526153#0 188386313#0 1119935543#0 1119936840#0 1119937599#2 530085625#0 -108031933#2 -437325055#2"/>
    </vehicle>
    <vehicle id="veh86" type="veh_passenger" depart="73.45" departLane="best" departSpeed="max">
        <route edges="1110746456 1151333059#0 85255869#0 1110752486 1110752772 43348945#0 1105574292#0 191556835#0 168935757#0 -1136657266#2"/>
    </vehicle>
    <vehicle id="veh87" type="veh_passenger" depart="74.30" departLane="best">
        <route edges="4611718#1 1238797610#0 1252995263 -4611711#1 4611712#0 43376693#0 375311158#0 110786129#0 375311157#0"/>
    </vehicle>
    <vehicle id="veh88" type="veh_passenger" depart="75.16" departLane="best">
        <route edges="1126237668#0 340498982#0 -1171295120#1 -4773029#4 66071366#4 1126241276#0 4611713 1252995263 -4611711#1 4611712#0 375311153#0 1123184403"/>
    </vehicle>
    <vehicle id="veh89" type="veh_passenger" depart="76.01" departLane="best">
        <route edges="-67099789#2 199847252#0 -1132164282#1 -1132164217#2 -1132163645#2 196850607#0 -1190781965 -196850605#1 196850609#0 882389497#0 194069450#0 461526153#0 188386313#0 1119935543#0 1119936840#0 4402037#0 930343902"/>
    </vehicle>
    <vehicle id="veh90" type="veh_passenger" depart="76.87" departLane="best">
        <route edges="-1228446781#4 753316505#0 1110748916#0 1155757393#0 -326116286#2 -24913267#3 342968607#0 1170522572#0 461526152#0 1126234503#0 1126237668#0 340498982#0"/>
    </vehicle>
    <vehicle id="veh92" type="veh_passenger" depart="78.57" departLane="best">
        <route edges="753316505#0 1110748916#0 1155757393#0 -326116286#2 -24913267#3 -155186522#1 153698380#0"/>
    </vehicle>
    <vehicle id="veh93" type="veh_passenger" depart="79.43" departLane="best" departSpeed="max">
        <route edges="120675240#0 -8008608 -4611696#5 -4611696#3 -23755950#2 -66071366#4 -66071366#3 35557161#0 35557161#3 35557161#4 1105574289#0 375311158#0 1123184404#0 375311154#0 375311154#1"/>
    </vehicle>
    <vehicle id="veh94" type="veh_passenger" depart="80.28" departLane="best">
        <route edges="-1132164893#3 -168935757#3 -1228446781#4 753316505#0 1110748916#0 1155757393#0 -326116286#2 -24913267#3 -155186522#1 153698380#0"/>
    </vehicle>
    <vehicle id="veh96" type="veh_passenger" depart="81.99" departLane="best">
        <route edges="-24242882#2 171423001#0 1190781964 42102542#0 196850608#0 1132163645#0 -1136657259#1 753316505#0"/>
    </vehicle>
    <vehicle id="veh97" type="veh_passenger" depart="82.84" departLane="best" departSpeed="max">
        <route edges="-1151333062#1 -65040946#7 -435164424#1 199847244#0 81113584#0 -327462543#2 -1132164863 -16374393#1 -505526660#1 -356359316#3"/>
    </vehicle>
    <vehicle id="veh98" type="veh_passenger" depart="83.70" departLane="best">
        <route edges="-4402037#2 132600840#0 1125871619#3 236092221#0 342968607#0 1170522572#0 461526152#0 1126234503#0 1126237668#0 340498982#0 1170522567#0 251884680#0 4611707#0 1195359141 4611693#2 -831860725#2 734578686 15973619#0"/>
    </vehicle>
    <vehicle id="veh99" type="veh_passenger" depart="84.55" departLane="best" departSpeed="max">
        <route edges="168515533#0 1123184403 375312063#0 110786129#0 375311157#0 -375311155#2 -67099789#2 199847252#0 -1132164282#1 -1132164217#2 -1132163645#2 196850607#0 -1190781965 -196850605#1 196850609#0 882389497#0 194069450#0"/>
    </vehicle>
    <vehicle id="veh100" type="veh_passenger" depart="85.41" departLane="best">
        <route edges="1170522567#0 251884680#0 4611707#0 1195359141 4611693#2 -23755950#2 -66071366#4 -66071366#3 -389101365#3 -35557143#5 42102542#0 196850608#0 1132163645#0 1132163645#3 1132164217#4 199847247#0 -81113584#2 199847241#0 435164424#0 1132166702#0 67627350#0"/>
    </vehicle>
    <vehicle id="veh101" type="veh_passenger" depart="86.26" departLane="best">
        <route edges="-35557161#2 66071366#0 4773029#0 28251222#0 1170522567#0 251884680#0 251884680#1 1126246695#1 339201217"/>
    </vehicle>
    <vehicle id="veh102" type="veh_passenger" depart="87.11" departLane="best">
        <route edges="-4597324#2 1151333059#0 85255869#0 1110752486 1110752772 335462921#0 707100745#0 110785555#0 327462543#0 67099789#0 375311155#0 16374191#0 375311156#0 110786129#0"/>
    </vehicle>
    <vehicle id="veh103" type="veh_passenger" depart="87.97" departLane="best" departSpeed="max">
        <route edges="-67627350#1 -67627353#1 -435164424#1 199847244#0 81113584#0 67099789#0 375311155#0 16374191#0 375311156#0 1123184404#0 375311154#0 375311154#1"/>
    </vehicle>
    <vehicle id="veh104" type="veh_passenger" depart="88.82" departLane="best" departSpeed="max">
        <route edges="-114667396#2 1217865061#1 1077923225#0 -330840125#1 1126237668#0 340498982#0 1170522567#0 251884680#0 251884680#1 1126246695#1 339201217 1126244314#0"/>
    </vehicle>
    <vehicle id="veh105" type="veh_passenger" depart="89.68" departLane="best">
        <route edges="98399537 1105574292#0 191556835#0 -1228446781#4 753316505#0 1110748916#0 1155757393#0 -326116286#2 -24913267#3 -155186522#1 1119936840#0 4402037#0 930343902"/>
    </vehicle>
    <vehicle id="veh106" type="veh_passenger" depart="90.53" departLane="best" departSpeed="max">
        <route edges="-114667396#2 1217865061#1 1077923225#0 882389494#0 340498988#0 188386313#0 1119935543#0 1119936840#0 1119937599#2 530085625#0 -108031933#2 -437325055#2"/>
    </vehicle>
    <vehicle id="veh107" type="veh_passenger" depart="91.39" departLane="best">
        <route edges="4611718#1 1238797610#0 1252995263 -4611711#1 -23755961#1 1105574289#0 1151333058#0 1073015940#0 199847247#0 -81113584#2 199847241#0 435164424#0 67099797#0"/>
    </vehicle>
    <vehicle id="veh108" type="veh_passenger" depart="92.24" departLane="best">
        <route edges="4588224#0 110785555#0 327462543#0 -81113584#2 199847241#0 435164424#0 458953718#0 23755720#0 23755718#0 508410318#0"/>
    </vehicle>
    <vehicle id="veh109" type="veh_passenger" depart="93.09" departLane="best">