<?xml version="1.0" encoding="UTF-8"?>

<!-- generated on 2024-12-14 01:56:16.792863 by osmWebWizard.py UNKNOWN
<configuration>
    <net-file value="/Users/parsa/VANET-Simulation/2024-12-14-01-56-13/osm.net.xml.gz"/>
    <output-trip-file value="/Users/parsa/VANET-Simulation/2024-12-14-01-56-13/osm.passenger.trips.xml"/>
    <route-file value="/Users/parsa/VANET-Simulation/2024-12-14-01-56-13/osm.passenger.rou.xml"/>
    <prefix value="veh"/>
    <trip-attributes value="departLane=&quot;best&quot;"/>
    <fringe-start-attributes value="departSpeed=&quot;max&quot;"/>
    <vehicle-class value="passenger"/>
    <lanes value="True"/>
    <fringe-factor value="5"/>
    <allow-fringe.min-length value="1000.0"/>
    <via-edge-types value="highway.motorway,highway.motorway_link,highway.trunk_link,highway.primary_link,highway.secondary_link,highway.tertiary_link"/>
    <min-distance value="300.0"/>
    <min-distance.fringe value="10.0"/>
    <remove-loops value="True"/>
    <validate value="True"/>
    <insertion-density value="12.0"/>
</configuration>
-->

<!-- generated on 2024-12-14 01:56:16 by Eclipse SUMO duarouter Version 1.20.0
<configuration xmlns:xsi="http://www.w3.org/2001/XMLSchema-instance" xsi:noNamespaceSchemaLocation="http://sumo.dlr.de/xsd/duarouterConfiguration.xsd">

    <input>
        <net-file value="/Users/parsa/VANET-Simulation/2024-12-14-01-56-13/osm.net.xml.gz"/>
        <route-files value="/Users/parsa/VANET-Simulation/2024-12-14-01-56-13/osm.passenger.trips.xml"/>
    </input>

    <output>
        <output-file value="/Users/parsa/VANET-Simulation/2024-12-14-01-56-13/osm.passenger.trips.xml.tmp"/>
        <alternatives-output value="NUL"/>
        <write-trips value="true"/>
    </output>

    <processing>
        <remove-loops value="true"/>
    </processing>

    <time>
        <begin value="0.0"/>
        <end value="3600.0"/>
    </time>

    <report>
        <no-warnings value="true"/>
        <ignore-errors value="true"/>
        <no-step-log value="true"/>
    </report>

</configuration>
-->

<routes xmlns:xsi="http://www.w3.org/2001/XMLSchema-instance" xsi:noNamespaceSchemaLocation="http://sumo.dlr.de/xsd/routes_file.xsd">
    <vType id="veh_passenger" vClass="passenger"/>
    <trip id="veh0" type="veh_passenger" depart="0.00" departLane="best" from="30721662#0" to="-1123106322#2"/>
    <trip id="veh1" type="veh_passenger" depart="9.87" departLane="best" departSpeed="max" from="1116360587#0" to="-6228081#1"/>
    <trip id="veh2" type="veh_passenger" depart="19.75" departLane="best" from="4412868#0" to="340498976#5"/>
    <trip id="veh3" type="veh_passenger" depart="29.62" departLane="best" departSpeed="max" from="606078065" to="-168942727#2"/>
    <trip id="veh4" type="veh_passenger" depart="39.49" departLane="best" from="1126237668#0" to="-1126465423"/>
    <trip id="veh5" type="veh_passenger" depart="49.37" departLane="best" from="-541295974#0" to="156364556#0"/>
    <trip id="veh6" type="veh_passenger" depart="59.24" departLane="best" from="28016312" to="-474362271"/>
    <trip id="veh7" type="veh_passenger" depart="69.11" departLane="best" from="339201177#0" to="194069450#0"/>
    <trip id="veh8" type="veh_passenger" depart="78.99" departLane="best" from="-62363401" to="23013165"/>
    <trip id="veh9" type="veh_passenger" depart="88.86" departLane="best" from="465376255#0" to="1105574291#0"/>
    <trip id="veh11" type="veh_passenger" depart="108.61" departLane="best" departSpeed="max" from="606078065" to="24243101"/>
    <trip id="veh12" type="veh_passenger" depart="118.48" departLane="best" from="-222328410" to="82654059#0"/>
    <trip id="veh13" type="veh_passenger" depart="128.36" departLane="best" from="1170522567#0" to="195397541#0"/>
    <trip id="veh14" type="veh_passenger" depart="138.23" departLane="best" from="51167934#0" to="251884680#0"/>
    <trip id="veh15" type="veh_passenger" depart="148.10" departLane="best" departSpeed="max" from="606078065" to="-202817674#5"/>
    <trip id="veh16" type="veh_passenger" depart="157.98" departLane="best" from="750204886#0" to="1119837507#0"/>
    <trip id="veh17" type="veh_passenger" depart="167.85" departLane="best" from="-168940071#4" to="-743631784#1"/>
    <trip id="veh19" type="veh_passenger" depart="187.60" departLane="best" from="541295978#0" to="1133992734#0"/>
    <trip id="veh20" type="veh_passenger" depart="197.47" departLane="best" from="-465376254#3" to="-534588621#1"/>
    <trip id="veh21" type="veh_passenger" depart="207.34" departLane="best" from="1112054538" to="-750204886#1"/>
    <trip id="veh22" type="veh_passenger" depart="217.22" departLane="best" from="-330840125#1" to="24913519#0"/>
    <trip id="veh23" type="veh_passenger" depart="227.09" departLane="best" from="-4611693#1" to="427637455"/>
    <trip id="veh24" type="veh_passenger" depart="236.96" departLane="best" from="83517336#3" to="606078072#0"/>
    <trip id="veh25" type="veh_passenger" depart="246.84" departLane="best" from="24243092#0" to="340498988#0"/>
    <trip id="veh26" type="veh_passenger" depart="256.71" departLane="best" from="541763974" to="-4611696#0"/>
    <trip id="veh27" type="veh_passenger" depart="266.59" departLane="best" from="750204886#0" to="-1126465845"/>
    <trip id="veh28" type="veh_passenger" depart="276.46" departLane="best" from="1126244314#0" to="1102369942"/>
    <trip id="veh29" type="veh_passenger" depart="286.33" departLane="best" from="-55741054" to="82654059#0"/>
    <trip id="veh30" type="veh_passenger" depart="296.21" departLane="best" departSpeed="max" from="606078065" to="1119935543#0"/>
    <trip id="veh31" type="veh_passenger" depart="306.08" departLane="best" from="339201217" to="1151064403"/>
    <trip id="veh32" type="veh_passenger" depart="315.95" departLane="best" from="1112054538" to="-882389497#1"/>
    <trip id="veh33" type="veh_passenger" depart="325.83" departLane="best" from="-24243107#2" to="1101961737"/>
    <trip id="veh34" type="veh_passenger" depart="335.70" departLane="best" departSpeed="max" from="1170522571" to="1024034690"/>
    <trip id="veh35" type="veh_passenger" depart="345.57" departLane="best" from="194069450#0" to="34848160#0"/>
    <trip id="veh36" type="veh_passenger" depart="355.45" departLane="best" from="-24242882#2" to="25294729#0"/>
    <trip id="veh37" type="veh_passenger" depart="365.32" departLane="best" from="4611707#0" to="1217865061#0"/>
    <trip id="veh38" type="veh_passenger" depart="375.19" departLane="best" from="1335908655" to="1149417521#0"/>
    <trip id="veh40" type="veh_passenger" depart="394.94" departLane="best" from="35578557#0" to="188386313#0"/>
    <trip id="veh41" type="veh_passenger" depart="404.81" departLane="best" from="-24243101" to="251884680#0"/>
    <trip id="veh42" type="veh_passenger" depart="414.69" departLane="best" from="156364570#1" to="82654059#0"/>
    <trip id="veh43" type="veh_passenger" depart="424.56" departLane="best" departSpeed="max" from="606078065" to="1101961737"/>
    <trip id="veh44" type="veh_passenger" depart="434.43" departLane="best" departSpeed="max" from="194073677#0" to="4611693#2"/>
    <trip id="veh45" type="veh_passenger" depart="444.31" departLane="best" from="1120993114#0" to="606078072#0"/>
    <trip id="veh46" type="veh_passenger" depart="454.18" departLane="best" from="251884680#1" to="437325047#4"/>
    <trip id="veh47" type="veh_passenger" depart="464.06" departLane="best" from="4610524#0" to="188914559"/>
    <trip id="veh48" type="veh_passenger" depart="473.93" departLane="best" from="4611698" to="183415643"/>
    <trip id="veh49" type="veh_passenger" depart="483.80" departLane="best" from="-1101961735#1" to="1119935543#0"/>
    <trip id="veh50" type="veh_passenger" depart="493.68" departLane="best" from="-1119933622" to="72157174#0"/>
    <trip id="veh51" type="veh_passenger" depart="503.55" departLane="best" departSpeed="max" from="606078065" to="-4773029#1"/>
    <trip id="veh52" type="veh_passenger" depart="513.42" departLane="best" from="1126234503#0" to="-1263204721"/>
    <trip id="veh54" type="veh_passenger" depart="533.17" departLane="best" from="-153698390#2" to="4610479#0"/>
    <trip id="veh55" type="veh_passenger" depart="543.04" departLane="best" from="4610600" to="-330840125#1"/>
    <trip id="veh56" type="veh_passenger" depart="552.92" departLane="best" from="-1119933622" to="194962375#0"/>
    <trip id="veh57" type="veh_passenger" depart="562.79" departLane="best" from="1126237668#0" to="-534588621#1"/>
    <trip id="veh58" type="veh_passenger" depart="572.66" departLane="best" from="22972195#0" to="427637455"/>
    <trip id="veh59" type="veh_passenger" depart="582.54" departLane="best" from="51167934#0" to="1119935543#0"/>
    <trip id="veh60" type="veh_passenger" depart="592.41" departLane="best" from="882389494#0" to="30720544#0"/>
    <trip id="veh62" type="veh_passenger" depart="612.16" departLane="best" from="-316746323#3" to="-6228081#1"/>
    <trip id="veh63" type="veh_passenger" depart="622.03" departLane="best" from="-114667396#6" to="23013165"/>
    <trip id="veh64" type="veh_passenger" depart="631.91" departLane="best" from="-751595929#2" to="1024034690"/>
    <trip id="veh65" type="veh_passenger" depart="641.78" departLane="best" from="156364570#1" to="-1171295120#1"/>
    <trip id="veh66" type="veh_passenger" depart="651.65" departLane="best" from="750204886#0" to="72157174#0"/>
    <trip id="veh67" type="veh_passenger" depart="661.53" departLane="best" departSpeed="max" from="606078065" to="153698390#0"/>
    <trip id="veh68" type="veh_passenger" depart="671.40" departLane="best" from="-882389497#1" to="339201217"/>
    <trip id="veh69" type="veh_passenger" depart="681.27" departLane="best" from="-562707499" to="-339201185"/>
    <trip id="veh70" type="veh_passenger" depart="691.15" departLane="best" from="-62363401" to="202157002#0"/>
    <trip id="veh71" type="veh_passenger" depart="701.02" departLane="best" from="168942727#0" to="4611698"/>
    <trip id="veh72" type="veh_passenger" depart="710.89" departLane="best" from="465376240#0" to="4611706#0"/>
    <trip id="veh73" type="veh_passenger" depart="720.77" departLane="best" from="-195397539" to="1217865061#1"/>
    <trip id="veh75" type="veh_passenger" depart="740.51" departLane="best" from="-427637455" to="831694400#0"/>
    <trip id="veh76" type="veh_passenger" depart="750.39" departLane="best" from="339201219" to="-195397539"/>
    <trip id="veh77" type="veh_passenger" depart="760.26" departLane="best" departSpeed="max" from="606078065" to="1024034690"/>
    <trip id="veh79" type="veh_passenger" depart="780.01" departLane="best" from="1217865061#0" to="111251382#0"/>
    <trip id="veh80" type="veh_passenger" depart="789.88" departLane="best" from="1170522567#0" to="72157174#0"/>
    <trip id="veh81" type="veh_passenger" depart="799.76" departLane="best" from="-153698390#2" to="541763974"/>
    <trip id="veh82" type="veh_passenger" depart="809.63" departLane="best" from="-62363402" to="-1171295120#1"/>
    <trip id="veh83" type="veh_passenger" depart="819.50" departLane="best" from="882389497#0" to="4773465#0"/>
    <trip id="veh85" type="veh_passenger" depart="839.25" departLane="best" departSpeed="max" from="606078065" to="-4610472#2"/>
    <trip id="veh86" type="veh_passenger" depart="849.12" departLane="best" from="-188914559" to="-6228081#1"/>
    <trip id="veh87" type="veh_passenger" depart="859.00" departLane="best" departSpeed="max" from="1170522571" to="-1263204721"/>
    <trip id="veh88" type="veh_passenger" depart="868.87" departLane="best" from="1170522567#0" to="831694400#0"/>
    <trip id="veh89" type="veh_passenger" depart="878.74" departLane="best" from="156364570#1" to="1217865061#0"/>
    <trip id="veh91" type="veh_passenger" depart="898.49" departLane="best" from="24243092#0" to="42103021"/>
    <trip id="veh92" type="veh_passenger" depart="908.36" departLane="best" from="4610351#0" to="1119935543#0"/>
    <trip id="veh94" type="veh_passenger" depart="928.11" departLane="best" from="23013165" to="-4610351#2"/>
    <trip id="veh95" type="veh_passenger" depart="937.98" departLane="best" from="120675240#0" to="22972219#0"/>
    <trip id="veh96" type="veh_passenger" depart="947.86" departLane="best" departSpeed="max" from="194073677#0" to="-534588621#1"/>
    <trip id="veh97" type="veh_passenger" depart="957.73" departLane="best" from="-4610375#1" to="82654059#0"/>
    <trip id="veh98" type="veh_passenger" depart="967.60" departLane="best" from="-168940071#4" to="-4611696#3"/>
    <trip id="veh99" type="veh_passenger" depart="977.48" departLane="best" departSpeed="max" from="24914992" to="340498976#2"/>
    <trip id="veh100" type="veh_passenger" depart="987.35" departLane="best" from="84960597" to="24243107#0"/>
    <trip id="veh101" type="veh_passenger" depart="997.23" departLane="best" departSpeed="max" from="606078065" to="-882389497#1"/>
    <trip id="veh102" type="veh_passenger" depart="1007.10" departLane="best" departSpeed="max" from="24914992" to="251884680#1"/>
    <trip id="veh103" type="veh_passenger" depart="1016.97" departLane="best" from="1217865061#0" to="22972219#0"/>
    <trip id="veh104" type="veh_passenger" depart="1026.85" departLane="best" from="202156994#0" to="-743631784#1"/>
    <trip id="veh105" type="veh_passenger" depart="1036.72" departLane="best" from="534588621#0" to="42103020#0"/>
    <trip id="veh106" type="veh_passenger" depart="1046.59" departLane="best" from="-55741054" to="1158584613"/>
    <trip id="veh107" type="veh_passenger" depart="1056.47" departLane="best" from="1126244314#0" to="4610362#2"/>
    <trip id="veh109" type="veh_passenger" depart="1076.21" departLane="best" from="-15971189" to="-534588621#1"/>
    <trip id="veh110" type="veh_passenger" depart="1086.09" departLane="best" from="1112054538" to="-743631784#1"/>
    <trip id="veh111" type="veh_passenger" depart="1095.96" departLane="best" from="-465376254#3" to="454285423"/>
    <trip id="veh112" type="veh_passenger" depart="1105.83" departLane="best" from="251884680#1" to="46140376#0"/>
    <trip id="veh113" type="veh_passenger" depart="1115.71" departLane="best" from="339201217" to="111251382#0"/>
    <trip id="veh114" type="veh_passenger" depart="1125.58" departLane="best" from="202157002#0" to="1119935543#0"/>
    <trip id="veh115" type="veh_passenger" depart="1135.45" departLane="best" from="340498976#2" to="751595929#0"/>
    <trip id="veh116" type="veh_passenger" depart="1145.33" departLane="best" from="-387892378" to="-24243101"/>
    <trip id="veh117" type="veh_passenger" depart="1155.20" departLane="best" from="-23121445#6" to="195397541#0"/>
    <trip id="veh118" type="veh_passenger" depart="1165.08" departLane="best" from="4067932" to="-492340367#3"/>
    <trip id="veh119" type="veh_passenger" depart="1174.95" departLane="best" from="-1126465423" to="1102369938"/>
    <trip id="veh120" type="veh_passenger" depart="1184.82" departLane="best" from="190447768#0" to="72157174#0"/>
    <trip id="veh121" type="veh_passenger" depart="1194.70" departLane="best" from="54781811" to="-194069450#2"/>
    <trip id="veh123" type="veh_passenger" depart="1214.44" departLane="best" from="-1101961737" to="4611693#2"/>
    <trip id="veh124" type="veh_passenger" depart="1224.32" departLane="best" from="541295978#0" to="1101961737"/>
    <trip id="veh125" type="veh_passenger" depart="1234.19" departLane="best" from="-454285423" to="-137630045#1"/>
    <trip id="veh126" type="veh_passenger" depart="1244.06" departLane="best" from="1217865061#1" to="111251382#0"/>
    <trip id="veh127" type="veh_passenger" depart="1253.94" departLane="best" from="15977422#0" to="606078071#0"/>
    <trip id="veh128" type="veh_passenger" depart="1263.81" departLane="best" departSpeed="max" from="606078065" to="194069450#0"/>
    <trip id="veh129" type="veh_passenger" depart="1273.68" departLane="best" from="534588621#0" to="22972195#0"/>
    <trip id="veh130" type="veh_passenger" depart="1283.56" departLane="best" from="-437325047#4" to="-330840125#1"/>
    <trip id="veh131" type="veh_passenger" depart="1293.43" departLane="best" from="1126234503#0" to="72157174#0"/>
    <trip id="veh132" type="veh_passenger" depart="1303.30" departLane="best" from="83517332#0" to="541763974"/>
    <trip id="veh133" type="veh_passenger" depart="1313.18" departLane="best" from="1101961674#0" to="-195411605#1"/>
    <trip id="veh134" type="veh_passenger" depart="1323.05" departLane="best" from="1170522572#0" to="251884680#1"/>
    <trip id="veh135" type="veh_passenger" depart="1332.93" departLane="best" from="4610351#0" to="72157174#0"/>
    <trip id="veh136" type="veh_passenger" depart="1342.80" departLane="best" from="465376256#0" to="606078071#0"/>
    <trip id="veh137" type="veh_passenger" depart="1352.67" departLane="best" from="158023913#0" to="437325047#4"/>
    <trip id="veh138" type="veh_passenger" depart="1362.55" departLane="best" from="461526152#0" to="-1126465845"/>
    <trip id="veh139" type="veh_passenger" depart="1372.42" departLane="best" from="465376256#0" to="1102369942"/>
    <trip id="veh140" type="veh_passenger" depart="1382.29" departLane="best" from="4611699#0" to="222328410"/>
    <trip id="veh141" type="veh_passenger" depart="1392.17" departLane="best" departSpeed="max" from="606078065" to="541763974"/>
    <trip id="veh143" type="veh_passenger" depart="1411.91" departLane="best" from="15971189" to="1119935543#0"/>
    <trip id="veh144" type="veh_passenger" depart="1421.79" departLane="best" from="83517332#0" to="-6228081#1"/>
    <trip id="veh145" type="veh_passenger" depart="1431.66" departLane="best" from="1127596842#0" to="54781811"/>
    <trip id="veh147" type="veh_passenger" depart="1451.41" departLane="best" from="31313667#0" to="1159149106"/>
    <trip id="veh148" type="veh_passenger" depart="1461.28" departLane="best" from="831659093#0" to="188386313#0"/>
    <trip id="veh149" type="veh_passenger" depart="1471.15" departLane="best" from="66071373#0" to="24243101"/>
    <trip id="veh152" type="veh_passenger" depart="1500.78" departLane="best" from="23121445#0" to="251884680#0"/>
    <trip id="veh153" type="veh_passenger" depart="1510.65" departLane="best" from="-427637455" to="1119935543#0"/>
    <trip id="veh154" type="veh_passenger" depart="1520.52" departLane="best" departSpeed="max" from="1170522571" to="202817674#0"/>
    <trip id="veh155" type="veh_passenger" depart="1530.40" departLane="best" from="-1121012037#1" to="4067932"/>
    <trip id="veh156" type="veh_passenger" depart="1540.27" departLane="best" from="-1101961735#1" to="72157174#0"/>
    <trip id="veh157" type="veh_passenger" depart="1550.14" departLane="best" from="22972195#0" to="42103021"/>
    <trip id="veh158" type="veh_passenger" depart="1560.02" departLane="best" from="-454285423" to="339201219"/>
    <trip id="veh159" type="veh_passenger" depart="1569.89" departLane="best" from="1151064386#1" to="153698390#0"/>
    <trip id="veh160" type="veh_passenger" depart="1579.76" departLane="best" from="340498976#2" to="1119935543#0"/>
    <trip id="veh161" type="veh_passenger" depart="1589.64" departLane="best" from="1126237668#0" to="-51167934#5"/>
    <trip id="veh162" type="veh_passenger" depart="1599.51" departLane="best" from="4067932" to="1119935543#0"/>
    <trip id="veh163" type="veh_passenger" depart="1609.38" departLane="best" from="-339201177#5" to="-1263204721"/>
    <trip id="veh164" type="veh_passenger" depart="1619.26" departLane="best" from="68647306#0" to="340498976#5"/>
    <trip id="veh165" type="veh_passenger" depart="1629.13" departLane="best" departSpeed="max" from="606078065" to="251884680#0"/>
    <trip id="veh166" type="veh_passenger" depart="1639.00" departLane="best" from="-1101961735#1" to="-111833185#1"/>
    <trip id="veh167" type="veh_passenger" depart="1648.88" departLane="best" from="122820534#0" to="222328410"/>
    <trip id="veh169" type="veh_passenger" depart="1668.62" departLane="best" from="168942727#0" to="72157174#0"/>
    <trip id="veh170" type="veh_passenger" depart="1678.50" departLane="best" from="83517332#0" to="4610480#0"/>
    <trip id="veh171" type="veh_passenger" depart="1688.37" departLane="best" from="-168942727#2" to="15971197"/>
    <trip id="veh172" type="veh_passenger" depart="1698.25" departLane="best" from="-1126465423" to="1120993183#3"/>
    <trip id="veh173" type="veh_passenger" depart="1708.12" departLane="best" from="4773465#0" to="4610362#2"/>
    <trip id="veh174" type="veh_passenger" depart="1717.99" departLane="best" from="340498988#0" to="-6228081#1"/>
    <trip id="veh175" type="veh_passenger" depart="1727.87" departLane="best" from="51167934#0" to="-1123106322#2"/>
    <trip id="veh177" type="veh_passenger" depart="1747.61" departLane="best" departSpeed="max" from="606078065" to="-156364570#5"/>
    <trip id="veh178" type="veh_passenger" depart="1757.49" departLane="best" from="1198409426#0" to="28016312"/>
    <trip id="veh179" type="veh_passenger" depart="1767.36" departLane="best" from="4773029#0" to="35578559"/>
    <trip id="veh180" type="veh_passenger" depart="1777.23" departLane="best" from="194069450#0" to="-84960597"/>
    <trip id="veh181" type="veh_passenger" depart="1787.11" departLane="best" from="339201217" to="1105574291#0"/>
    <trip id="veh182" type="veh_passenger" depart="1796.98" departLane="best" from="4610374#0" to="4611693#2"/>
    <trip id="veh183" type="veh_passenger" depart="1806.85" departLane="best" from="23121445#0" to="1217865061#0"/>
    <trip id="veh184" type="veh_passenger" depart="1816.73" departLane="best" from="4611694#0" to="82654059#0"/>
    <trip id="veh185" type="veh_passenger" depart="1826.60" departLane="best" from="202156994#0" to="1159149106"/>
    <trip id="veh186" type="veh_passenger" depart="1836.47" departLane="best" from="1101961674#0" to="-51167934#5"/>
    <trip id="veh187" type="veh_passenger" depart="1846.35" departLane="best" from="158023913#0" to="46140382"/>
    <trip id="veh188" type="veh_passenger" depart="1856.22" departLane="best" from="340498982#0" to="46140376#0"/>
    <trip id="veh189" type="veh_passenger" depart="1866.10" departLane="best" departSpeed="max" from="24914992" to="82654059#0"/>
    <trip id="veh190" type="veh_passenger" depart="1875.97" departLane="best" departSpeed="max" from="606078065" to="24913519#0"/>
    <trip id="veh191" type="veh_passenger" depart="1885.84" departLane="best" from="51167934#0" to="194069450#0"/>
    <trip id="veh192" type="veh_passenger" depart="1895.72" departLane="best" departSpeed="max" from="606078065" to="454285423"/>
    <trip id="veh193" type="veh_passenger" depart="1905.59" departLane="best" from="-1119933622" to="1101961735#0"/>
    <trip id="veh194" type="veh_passenger" depart="1915.46" departLane="best" from="1077923225#0" to="606078072#0"/>
    <trip id="veh195" type="veh_passenger" depart="1925.34" departLane="best" from="-4610600" to="168940071#0"/>
    <trip id="veh196" type="veh_passenger" depart="1935.21" departLane="best" from="-168937986" to="-111833185#1"/>
    <trip id="veh197" type="veh_passenger" depart="1945.08" departLane="best" from="-1114798610#1" to="1119935543#0"/>
    <trip id="veh198" type="veh_passenger" depart="1954.96" departLane="best" from="22972219#0" to="-38208961"/>
    <trip id="veh199" type="veh_passenger" depart="1964.83" departLane="best" from="-751595929#2" to="35578557#0"/>
    <trip id="veh200" type="veh_passenger" depart="1974.70" departLane="best" departSpeed="max" from="374734385#0" to="1305423286#0"/>
    <trip id="veh201" type="veh_passenger" depart="1984.58" departLane="best" from="1170522572#0" to="190447768#0"/>
    <trip id="veh202" type="veh_passenger" depart="1994.45" departLane="best" from="1126237668#0" to="72157174#0"/>
    <trip id="veh203" type="veh_passenger" depart="2004.32" departLane="best" departSpeed="max" from="24914992" to="35578559"/>
    <trip id="veh204" type="veh_passenger" depart="2014.20" departLane="best" departSpeed="max" from="606078065" to="4610524#0"/>
    <trip id="veh205" type="veh_passenger" depart="2024.07" departLane="best" departSpeed="max" from="1170522571" to="1105574291#0"/>
    <trip id="veh206" type="veh_passenger" depart="2033.95" departLane="best" from="1149417521#2" to="-4610374#2"/>
    <trip id="veh207" type="veh_passenger" depart="2043.82" departLane="best" from="1126237668#0" to="-4610351#2"/>
    <trip id="veh208" type="veh_passenger" depart="2053.69" departLane="best" from="23013165" to="24243101"/>
    <trip id="veh210" type="veh_passenger" depart="2073.44" departLane="best" from="1144362247" to="1149417521#2"/>
    <trip id="veh211" type="veh_passenger" depart="2083.31" departLane="best" from="1170522572#0" to="-4610375#1"/>
    <trip id="veh212" type="veh_passenger" depart="2093.19" departLane="best" from="15977422#0" to="-330840125#1"/>
    <trip id="veh213" type="veh_passenger" depart="2103.06" departLane="best" from="28251222#0" to="-1123150361#2"/>
    <trip id="veh214" type="veh_passenger" depart="2112.93" departLane="best" departSpeed="max" from="1170522571" to="202156994#0"/>
    <trip id="veh215" type="veh_passenger" depart="2122.81" departLane="best" from="28016312" to="305153173"/>
    <trip id="veh217" type="veh_passenger" depart="2142.55" departLane="best" from="-55741054" to="1119935543#0"/>
    <trip id="veh218" type="veh_passenger" depart="2152.43" departLane="best" from="4610374#0" to="-4773029#1"/>
    <trip id="veh219" type="veh_passenger" depart="2162.30" departLane="best" from="1101961735#0" to="168940071#0"/>
    <trip id="veh220" type="veh_passenger" depart="2172.17" departLane="best" from="-1119933622" to="188914559"/>
    <trip id="veh221" type="veh_passenger" depart="2182.05" departLane="best" from="882389497#0" to="1126237668#0"/>
    <trip id="veh222" type="veh_passenger" depart="2191.92" departLane="best" from="339201177#0" to="4611696#4"/>
    <trip id="veh223" type="veh_passenger" depart="2201.80" departLane="best" from="750204886#0" to="-4773029#1"/>
    <trip id="veh224" type="veh_passenger" depart="2211.67" departLane="best" from="169999355#0" to="437325047#4"/>
    <trip id="veh225" type="veh_passenger" depart="2221.54" departLane="best" from="24913519#0" to="-6228081#1"/>
    <trip id="veh226" type="veh_passenger" depart="2231.42" departLane="best" departSpeed="max" from="374734385#0" to="4610524#0"/>
    <trip id="veh227" type="veh_passenger" depart="2241.29" departLane="best" from="-4610600" to="24913519#0"/>
    <trip id="veh228" type="veh_passenger" depart="2251.16" departLane="best" from="4610362#2" to="-24242882#2"/>
    <trip id="veh229" type="veh_passenger" depart="2261.04" departLane="best" from="202157002#0" to="82654059#0"/>
    <trip id="veh230" type="veh_passenger" depart="2270.91" departLane="best" from="23121445#0" to="-1123106322#2"/>
    <trip id="veh231" type="veh_passenger" depart="2280.78" departLane="best" from="1126237668#0" to="340498976#5"/>
    <trip id="veh233" type="veh_passenger" depart="2300.53" departLane="best" from="38208961" to="-15971189"/>
    <trip id="veh234" type="veh_passenger" depart="2310.40" departLane="best" departSpeed="max" from="374734385#0" to="25294729#0"/>
    <trip id="veh235" type="veh_passenger" depart="2320.28" departLane="best" from="-202817674#5" to="4611694#0"/>
    <trip id="veh236" type="veh_passenger" depart="2330.15" departLane="best" departSpeed="max" from="606078065" to="24243092#0"/>
    <trip id="veh237" type="veh_passenger" depart="2340.02" departLane="best" from="316746323#0" to="831694400#0"/>
    <trip id="veh238" type="veh_passenger" depart="2349.90" departLane="best" from="4611698" to="1217865061#0"/>
    <trip id="veh239" type="veh_passenger" depart="2359.77" departLane="best" from="122820534#0" to="1144362247"/>
    <trip id="veh240" type="veh_passenger" depart="2369.64" departLane="best" departSpeed="max" from="194073677#0" to="1126234503#0"/>
    <trip id="veh242" type="veh_passenger" depart="2389.39" departLane="best" from="-222328410" to="82654059#0"/>
    <trip id="veh243" type="veh_passenger" depart="2399.27" departLane="best" from="541295978#0" to="465376256#0"/>
    <trip id="veh244" type="veh_passenger" depart="2409.14" departLane="best" departSpeed="max" from="374734385#0" to="251884680#0"/>
    <trip id="veh245" type="veh_passenger" depart="2419.01" departLane="best" from="-437325047#3" to="82654059#0"/>
    <trip id="veh246" type="veh_passenger" depart="2428.89" departLane="best" from="-111251382#3" to="-461526153#1"/>
    <trip id="veh249" type="veh_passenger" depart="2458.51" departLane="best" from="-51167934#5" to="-168942727#2"/>
    <trip id="veh250" type="veh_passenger" depart="2468.38" departLane="best" departSpeed="max" from="606078065" to="-84960597"/>
    <trip id="veh251" type="veh_passenger" depart="2478.25" departLane="best" from="15971197" to="24913519#0"/>
    <trip id="veh252" type="veh_passenger" depart="2488.13" departLane="best" from="1170522567#0" to="-1123150361#2"/>
    <trip id="veh253" type="veh_passenger" depart="2498.00" departLane="best" departSpeed="max" from="606078065" to="-4611694#2"/>
    <trip id="veh254" type="veh_passenger" depart="2507.87" departLane="best" from="-55741054" to="4611707#0"/>
    <trip id="veh255" type="veh_passenger" depart="2517.75" departLane="best" from="11483007#0" to="606078071#0"/>
    <trip id="veh257" type="veh_passenger" depart="2537.49" departLane="best" from="-111251382#3" to="82654059#0"/>
    <trip id="veh258" type="veh_passenger" depart="2547.37" departLane="best" from="-168942727#2" to="42103021"/>
    <trip id="veh259" type="veh_passenger" depart="2557.24" departLane="best" from="194069450#0" to="251884680#0"/>
    <trip id="veh260" type="veh_passenger" depart="2567.12" departLane="best" from="-194962375#2" to="-562707499"/>
    <trip id="veh261" type="veh_passenger" depart="2576.99" departLane="best" departSpeed="max" from="374734385#0" to="1119935543#0"/>