<?xml version="1.0" encoding="UTF-8"?>

<!-- generated on 2024-12-14 01:56:16 by Eclipse SUMO netconvert Version 1.20.0
<configuration xmlns:xsi="http://www.w3.org/2001/XMLSchema-instance" xsi:noNamespaceSchemaLocation="http://sumo.dlr.de/xsd/netconvertConfiguration.xsd">

    <input>
        <type-files value="${SUMO_HOME}/data/typemap/osmNetconvert.typ.xml"/>
        <osm-files value="osm_bbox.osm.xml.gz"/>
    </input>

    <output>
        <output-file value="osm.net.xml.gz"/>
        <output.street-names value="true"/>
        <output.original-names value="true"/>
    </output>

    <projection>
        <proj.utm value="true"/>
    </projection>

    <processing>
        <geometry.remove value="true"/>
        <roundabouts.guess value="true"/>
        <lefthand value="true"/>
    </processing>

    <tls_building>
        <tls.discard-simple value="true"/>
        <tls.join value="true"/>
        <tls.guess-signals value="true"/>
        <tls.default-type value="actuated"/>
    </tls_building>

    <ramp_guessing>
    :q
    :q



:q
        <ramps.guess value="true"/>
    </ramp_guessing>

    <edge_removal>
        <keep-edges.by-vclass value="passenger"/>
    </edge_removal>

    <junctions>
        <junctions.join value="true"/>
        <junctions.corner-detail value="5"/>
    </junctions>

</configuration>
-->

<net version="1.20" junctionCornerDetail="5" lefthand="true" limitTurnSpeed="5.50" xmlns:xsi="http://www.w3.org/2001/XMLSchema-instance" xsi:noNamespaceSchemaLocation="http://sumo.dlr.de/xsd/net_file.xsd">

    <location netOffset="-390466.26,-5819533.77" convBoundary="0.00,-0.00,1571.83,1157.11" origBoundary="13.372213,52.511850,13.409522,52.528166" projParameter="+proj=utm +zone=33 +ellps=WGS84 +datum=WGS84 +units=m +no_defs"/>

    <type id="highway.living_street" priority="2" numLanes="1" speed="2.78" disallow="tram rail_urban rail rail_electric rail_fast ship container cable_car subway aircraft wheelchair scooter drone" oneway="0"/>
    <type id="highway.primary" priority="12" numLanes="2" speed="27.78" disallow="tram rail_urban rail rail_electric rail_fast ship container cable_car subway aircraft wheelchair scooter drone" oneway="0"/>
    <type id="highway.residential" priority="3" numLanes="1" speed="13.89" disallow="tram rail_urban rail rail_electric rail_fast ship container cable_car subway aircraft wheelchair scooter drone" oneway="0"/>
    <type id="highway.secondary" priority="11" numLanes="1" speed="27.78" disallow="tram rail_urban rail rail_electric rail_fast ship container cable_car subway aircraft wheelchair scooter drone" oneway="0"/>
    <type id="highway.tertiary" priority="10" numLanes="1" speed="22.22" disallow="tram rail_urban rail rail_electric rail_fast ship container cable_car subway aircraft wheelchair scooter drone" oneway="0"/>

    <edge id=":10083821714_0" function="internal">
        <lane id=":10083821714_0_0" index="0" disallow="tram rail_urban rail rail_electric rail_fast ship container cable_car subway aircraft wheelchair scooter drone" speed="8.33" length="3.04" shape="711.47,424.51 710.67,424.10 710.08,423.91 709.49,423.72 708.69,423.32"/>
    </edge>
    <edge id=":10083821714_1" function="internal">
        <lane id=":10083821714_1_0" index="0" disallow="tram rail_urban rail rail_electric rail_fast ship container cable_car subway aircraft wheelchair scooter drone" speed="8.33" length="3.04" width="4.00" shape="707.05,426.06 707.78,426.58 708.23,427.00 708.68,427.43 709.42,427.94"/>
    </edge>
    <edge id=":10083827716_0" function="internal">
        <lane id=":10083827716_0_0" index="0" disallow="tram rail_urban rail rail_electric rail_fast ship container cable_car subway aircraft wheelchair scooter drone" speed="8.33" length="3.23" width="4.00" shape="770.51,458.14 769.63,457.83 768.94,457.85 768.26,457.87 767.38,457.55"/>
    </edge>
    <edge id=":10083827716_1" function="internal">
        <lane id=":10083827716_1_0" index="0" disallow="tram rail_urban rail rail_electric rail_fast ship container cable_car subway aircraft wheelchair scooter drone" speed="8.33" length="3.24" width="6.10" shape="765.38,461.02 766.10,461.62 766.42,462.22 766.75,462.83 767.46,463.42"/>
    </edge>
    <edge id=":10189040386_0" function="internal">
        <lane id=":10189040386_0_0" index="0" disallow="pedestrian tram rail_urban rail rail_electric rail_fast ship container cable_car subway aircraft wheelchair scooter drone" speed="13.89" length="8.21" shape="404.09,259.90 401.71,259.47 400.16,258.80 398.60,258.13 396.23,257.70"/>
        <lane id=":10189040386_0_1" index="1" disallow="pedestrian tram rail_urban rail rail_electric rail_fast ship container cable_car subway aircraft wheelchair scooter drone" speed="13.89" length="8.21" shape="404.09,259.90 401.68,259.97 400.04,260.40 398.40,260.82 395.99,260.89"/>
        <lane id=":10189040386_0_2" index="2" disallow="pedestrian tram rail_urban rail rail_electric rail_fast ship container cable_car subway aircraft wheelchair scooter drone" speed="13.89" length="8.21" shape="403.85,263.09 401.44,263.16 399.80,263.59 398.16,264.02 395.75,264.09"/>
    </edge>
    <edge id=":10189040387_0" function="internal">
        <lane id=":10189040387_0_0" index="0" disallow="pedestrian tram rail_urban rail rail_electric rail_fast ship container cable_car subway aircraft wheelchair scooter drone" speed="13.89" length="8.21" shape="90.36,234.69 87.99,234.24 86.44,233.57 84.88,232.89 82.52,232.44"/>
        <lane id=":10189040387_0_1" index="1" disallow="pedestrian tram rail_urban rail rail_electric rail_fast ship container cable_car subway aircraft wheelchair scooter drone" speed="13.89" length="8.21" shape="90.10,237.88 87.73,237.43 86.18,236.76 84.62,236.08 82.25,235.63"/>
        <lane id=":10189040387_0_2" index="2" disallow="pedestrian tram rail_urban rail rail_electric rail_fast ship container cable_car subway aircraft wheelchair scooter drone" speed="13.89" length="8.21" shape="90.10,237.88 87.69,237.93 86.05,238.35 84.40,238.77 81.99,238.82"/>
    </edge>
    <edge id=":10242249291_0" function="internal">
        <lane id=":10242249291_0_0" index="0" disallow="tram rail_urban rail rail_electric rail_fast ship container cable_car subway aircraft wheelchair scooter drone" speed="8.33" length="0.10" shape="542.82,490.00 542.82,490.00"/>
    </edge>
    <edge id=":10298577286_0" function="internal">
        <lane id=":10298577286_0_0" index="0" disallow="pedestrian tram rail_urban rail rail_electric rail_fast ship container cable_car subway aircraft wheelchair scooter drone" speed="13.89" length="8.21" shape="284.34,220.87 286.71,221.33 288.26,222.02 289.81,222.70 292.17,223.16"/>
        <lane id=":10298577286_0_1" index="1" disallow="pedestrian tram rail_urban rail rail_electric rail_fast ship container cable_car subway aircraft wheelchair scooter drone" speed="13.89" length="8.21" shape="284.63,217.68 286.99,218.14 288.54,218.83 290.09,219.52 292.45,219.98"/>
        <lane id=":10298577286_0_2" index="2" disallow="pedestrian tram rail_urban rail rail_electric rail_fast ship container cable_car subway aircraft wheelchair scooter drone" speed="13.89" length="8.21" shape="284.63,217.68 287.03,217.64 288.68,217.23 290.32,216.83 292.73,216.79"/>
    </edge>
    <edge id=":10572303254_0" function="internal">
        <lane id=":10572303254_0_0" index="0" disallow="pedestrian tram rail_urban rail rail_electric rail_fast ship container cable_car subway aircraft wheelchair scooter drone" speed="8.33" length="3.28" shape="1461.85,915.29 1461.01,915.71 1460.55,916.24 1460.10,916.77 1459.26,917.19"/>
    </edge>
    <edge id=":10572303254_1" function="internal">
        <lane id=":10572303254_1_0" index="0" disallow="pedestrian tram rail_urban rail rail_electric rail_fast ship container cable_car subway aircraft wheelchair scooter drone" speed="8.33" length="3.28" width="5.50" shape="1460.09,920.28 1461.03,920.21 1461.69,920.44 1462.35,920.67 1463.29,920.60"/>
    </edge>
    <edge id=":10572308474_0" function="internal">
        <lane id=":10572308474_0_0" index="0" disallow="pedestrian tram rail_urban rail rail_electric rail_fast ship container cable_car subway aircraft wheelchair scooter drone" speed="8.33" length="3.28" width="5.50" shape="1482.81,909.15 1481.89,909.32 1481.21,909.17 1480.52,909.02 1479.60,909.20"/>
    </edge>
    <edge id=":10572308474_1" function="internal">
        <lane id=":10572308474_1_0" index="0" disallow="pedestrian tram rail_urban rail rail_electric rail_fast ship container cable_car subway aircraft wheelchair scooter drone" speed="8.33" length="3.28" shape="1481.65,914.30 1482.44,913.79 1482.83,913.21 1483.22,912.62 1484.01,912.11"/>
    </edge>
    <edge id=":10651746550_0" function="internal">
        <lane id=":10651746550_0_0" index="0" disallow="pedestrian tram rail_urban rail rail_electric rail_fast ship container cable_car subway aircraft wheelchair scooter drone" speed="13.89" length="8.15" shape="1224.61,488.68 1223.01,486.94 1222.20,485.48 1221.42,484.00 1219.88,482.18"/>
        <lane id=":10651746550_0_1" index="1" disallow="pedestrian tram rail_urban rail rail_electric rail_fast ship container cable_car subway aircraft wheelchair scooter drone" speed="13.89" length="8.15" shape="1222.50,491.08 1220.87,489.32 1220.04,487.84 1219.24,486.34 1217.67,484.50"/>
    </edge>
    <edge id=":10707820142_0" function="internal">
        <lane id=":10707820142_0_0" index="0" disallow="tram rail_urban rail rail_electric rail_fast ship container cable_car subway aircraft wheelchair scooter drone" speed="3.65" length="4.67" shape="77.47,676.22 76.05,675.99 75.21,676.30 74.96,677.16 75.30,678.57"/>
    </edge>
    <edge id=":1075544310_0" function="internal">
        <lane id=":1075544310_0_0" index="0" disallow="tram rail_urban rail rail_electric rail_fast ship container cable_car subway aircraft wheelchair scooter drone" speed="3.65" length="4.67" shape="588.81,841.87 587.67,840.99 586.79,840.87 586.16,841.50 585.78,842.89"/>
    </edge>
    <edge id=":10772746896_0" function="internal">
        <lane id=":10772746896_0_0" index="0" disallow="pedestrian tram rail_urban rail rail_electric rail_fast ship container cable_car subway aircraft wheelchair scooter drone" speed="6.38" length="12.11" width="8.00" shape="89.06,539.22 92.94,539.91 95.07,541.37 95.44,543.61 94.06,546.62"/>
    </edge>
    <edge id=":10772746896_1" function="internal">
        <lane id=":10772746896_1_0" index="0" disallow="tram rail_urban rail rail_electric rail_fast ship container cable_car subway aircraft wheelchair scooter drone" speed="8.33" length="17.24" shape="89.06,539.22 106.26,540.30"/>
    </edge>
    <edge id=":10880725066_0" function="internal">
        <lane id=":10880725066_0_0" index="0" disallow="pedestrian tram rail_urban rail rail_electric rail_fast ship container cable_car subway aircraft wheelchair scooter drone" speed="13.89" length="8.21" shape="135.67,208.64 138.04,209.06 139.60,209.73 141.16,210.39 143.53,210.81"/>
        <lane id=":10880725066_0_1" index="1" disallow="pedestrian tram rail_urban rail rail_electric rail_fast ship container cable_car subway aircraft wheelchair scooter drone" speed="13.89" length="8.21" shape="135.90,205.45 138.27,205.87 139.83,206.53 141.39,207.20 143.76,207.62"/>
        <lane id=":10880725066_0_2" index="2" disallow="pedestrian tram rail_urban rail rail_electric rail_fast ship container cable_car subway aircraft wheelchair scooter drone" speed="13.89" length="8.21" shape="135.90,205.45 138.31,205.37 139.95,204.94 141.58,204.50 143.99,204.43"/>
    </edge>
    <edge id=":11204159465_0" function="internal">
        <lane id=":11204159465_0_0" index="0" disallow="pedestrian tram rail_urban rail rail_electric rail_fast ship container cable_car subway aircraft wheelchair scooter drone" speed="8.33" length="0.28" shape="998.98,809.28 999.06,809.02"/>
    </edge>
    <edge id=":11720027616_0" function="internal">
        <lane id=":11720027616_0_0" index="0" disallow="tram rail_urban rail rail_electric rail_fast ship container cable_car subway aircraft wheelchair scooter drone" speed="8.33" length="1.79" width="4.70" shape="715.76,257.17 716.74,258.67"/>
    </edge>
    <edge id=":11720027616_1" function="internal">
        <lane id=":11720027616_1_0" index="0" disallow="tram rail_urban rail rail_electric rail_fast ship container cable_car subway aircraft wheelchair scooter drone" speed="3.13" length="3.43" width="2.35" shape="715.76,257.17 716.24,258.11 716.79,258.48 717.40,258.25 718.09,257.45"/>
    </edge>
    <edge id=":1206624326_0" function="internal">
        <lane id=":1206624326_0_0" index="0" disallow="tram rail_urban rail rail_electric rail_fast ship container cable_car subway aircraft wheelchair scooter drone" speed="3.65" length="4.67" shape="86.58,409.72 85.33,410.43 84.87,411.20 85.21,412.03 86.35,412.91"/>
    </edge>
    <edge id=":1208647794_0" function="internal">
        <lane id=":1208647794_0_0" index="0" disallow="tram rail_urban rail rail_electric rail_fast ship container cable_car subway aircraft wheelchair scooter drone" speed="8.33" length="11.11" shape="714.20,520.31 711.78,521.82 710.92,523.94 710.51,526.59 709.47,529.71"/>
    </edge>
    <edge id=":1208647794_1" function="internal">
        <lane id=":1208647794_1_0" index="0" disallow="tram rail_urban rail rail_electric rail_fast ship container cable_car subway aircraft wheelchair scooter drone" speed="4.42" length="6.86" width="4.70" shape="714.20,520.31 712.89,521.98 712.70,523.28 713.63,524.21 715.67,524.77"/>
    </edge>
    <edge id=":1208647794_2" function="internal">
        <lane id=":1208647794_2_0" index="0" disallow="tram rail_urban rail rail_electric rail_fast ship container cable_car subway aircraft wheelchair scooter drone" speed="8.33" length="12.90" shape="710.02,517.22 710.89,520.56 711.17,523.59 710.74,526.56 709.47,529.71"/>
    </edge>
    <edge id=":1208647794_3" function="internal">
        <lane id=":1208647794_3_0" index="0" disallow="tram rail_urban rail rail_electric rail_fast ship container cable_car subway aircraft wheelchair scooter drone" speed="6.83" length="10.17" width="4.70" shape="710.02,517.22 711.38,520.89 712.78,523.37 714.21,524.67 715.67,524.77"/>
    </edge>
    <edge id=":1210473765_0" function="internal">
        <lane id=":1210473765_0_0" index="0" disallow="tram rail_urban rail rail_electric rail_fast ship container cable_car subway aircraft wheelchair scooter drone" speed="5.56" length="0.29" shape="481.83,949.61 481.54,949.66"/>
    </edge>
    <edge id=":1210473765_1" function="internal">
        <lane id=":1210473765_1_0" index="0" disallow="tram rail_urban rail rail_electric rail_fast ship container cable_car subway aircraft wheelchair scooter drone" speed="5.56" length="0.31" shape="482.12,952.81 482.42,952.75"/>
    </edge>
    <edge id=":12219018600_0" function="internal">
        <lane id=":12219018600_0_0" index="0" disallow="tram rail_urban rail rail_electric rail_fast ship container cable_car subway aircraft wheelchair scooter drone" speed="7.99" length="6.92" shape="1490.06,52.03 1491.16,52.41 1491.88,52.80 1492.46,53.37 1493.16,54.29"/>
        <lane id=":12219018600_0_1" index="1" disallow="tram rail_urban rail rail_electric rail_fast ship container cable_car subway aircraft wheelchair scooter drone" speed="8.33" length="6.92" shape="1491.06,48.99 1492.72,49.57 1493.81,50.16 1494.69,51.02 1495.76,52.42"/>
        <lane id=":12219018600_0_2" index="2" disallow="tram rail_urban rail rail_electric rail_fast ship container cable_car subway aircraft wheelchair scooter drone" speed="8.33" length="6.92" shape="1491.06,48.99 1493.39,49.30 1495.22,49.07 1496.79,49.19 1498.35,50.55"/>
        <lane id=":12219018600_0_3" index="3" disallow="tram rail_urban rail rail_electric rail_fast ship container cable_car subway aircraft wheelchair scooter drone" speed="8.33" length="6.92" shape="1491.06,48.99 1500.95,48.68"/>
    </edge>
    <edge id=":12357719412_0" function="internal">
        <lane id=":12357719412_0_0" index="0" disallow="tram rail_urban rail rail_electric rail_fast ship container cable_car subway aircraft wheelchair scooter drone" speed="5.56" length="0.30" width="5.00" shape="923.16,538.91 923.01,539.17"/>
    </edge>
    <edge id=":12357719412_1" function="internal">
        <lane id=":12357719412_1_0" index="0" disallow="tram rail_urban rail rail_electric rail_fast ship container cable_car subway aircraft wheelchair scooter drone" speed="5.56" length="0.30" width="5.00" shape="927.26,541.79 927.42,541.53"/>
    </edge>
    <edge id=":1447185655_0" function="internal">
        <lane id=":1447185655_0_0" index="0" disallow="tram rail_urban rail rail_electric rail_fast ship container cable_car subway aircraft wheelchair scooter drone" speed="11.11" length="14.37" shape="125.18,812.70 114.63,802.95"/>
    </edge>
    <edge id=":1447185655_1" function="internal">
        <lane id=":1447185655_1_0" index="0" disallow="pedestrian tram rail_urban rail rail_electric rail_fast ship container cable_car subway aircraft wheelchair scooter drone" speed="7.55" length="4.74" shape="125.18,812.70 121.44,810.02 121.30,809.99"/>
    </edge>
    <edge id=":1447185655_2" function="internal">
        <lane id=":1447185655_2_0" index="0" disallow="tram rail_urban rail rail_electric rail_fast ship container cable_car subway aircraft wheelchair scooter drone" speed="3.65" length="1.44" shape="125.18,812.70 123.75,812.48"/>
    </edge>
    <edge id=":1447185655_9" function="internal">
        <lane id=":1447185655_9_0" index="0" disallow="pedestrian tram rail_urban rail rail_electric rail_fast ship container cable_car subway aircraft wheelchair scooter drone" speed="7.55" length="10.19" shape="121.30,809.99 118.15,809.26 115.32,810.42 112.94,813.50"/>
    </edge>
    <edge id=":1447185655_10" function="internal">
        <lane id=":1447185655_10_0" index="0" disallow="tram rail_urban rail rail_electric rail_fast ship container cable_car subway aircraft wheelchair scooter drone" speed="3.65" length="3.23" shape="123.75,812.48 122.92,812.80 122.67,813.66 123.01,815.06"/>
    </edge>
    <edge id=":1447185655_3" function="internal">
        <lane id=":1447185655_3_0" index="0" disallow="pedestrian tram rail_urban rail rail_electric rail_fast ship container cable_car subway aircraft wheelchair scooter drone" speed="6.09" length="9.29" shape="115.41,815.66 116.90,813.71 118.67,812.96 120.70,813.41 123.01,815.06"/>
    </edge>
    <edge id=":1447185655_4" function="internal">
        <lane id=":1447185655_4_0" index="0" disallow="pedestrian tram rail_urban rail rail_electric rail_fast ship container cable_car subway aircraft wheelchair scooter drone" speed="8.33" length="13.80" shape="115.41,815.66 116.96,811.86 117.35,808.48 116.57,805.50 114.63,802.95"/>
    </edge>
    <edge id=":1447185655_5" function="internal">
        <lane id=":1447185655_5_0" index="0" disallow="pedestrian tram rail_urban rail rail_electric rail_fast ship container cable_car subway aircraft wheelchair scooter drone" speed="3.68" length="4.80" shape="115.41,815.66 115.60,814.19 115.25,813.34 114.37,813.11 112.94,813.50"/>
    </edge>
    <edge id=":1447185655_6" function="internal">
        <lane id=":1447185655_6_0" index="0" disallow="pedestrian tram rail_urban rail rail_electric rail_fast ship container cable_car subway aircraft wheelchair scooter drone" speed="7.15" length="8.91" shape="112.45,805.29 113.70,806.94 114.20,808.85 113.94,811.04 112.94,813.50"/>
    </edge>
    <edge id=":1447185655_7" function="internal">
        <lane id=":1447185655_7_0" index="0" disallow="tram rail_urban rail rail_electric rail_fast ship container cable_car subway aircraft wheelchair scooter drone" speed="11.11" length="14.39" shape="112.45,805.29 123.01,815.06"/>
    </edge>
    <edge id=":1447185655_8" function="internal">
        <lane id=":1447185655_8_0" index="0" disallow="tram rail_urban rail rail_electric rail_fast ship container cable_car subway aircraft wheelchair scooter drone" speed="3.65" length="1.44" shape="112.45,805.29 113.87,805.52"/>
    </edge>
    <edge id=":1447185655_11" function="internal">
        <lane id=":1447185655_11_0" index="0" disallow="tram rail_urban rail rail_electric rail_fast ship container cable_car subway aircraft wheelchair scooter drone" speed="3.65" length="3.23" shape="113.87,805.52 114.71,805.21 114.96,804.35 114.63,802.95"/>
    </edge>
    <edge id=":160493817_0" function="internal">
        <lane id=":160493817_0_0" index="0" disallow="tram rail_urban rail rail_electric rail_fast ship container cable_car subway aircraft wheelchair scooter drone" speed="2.78" length="2.11" shape="789.60,471.01 791.39,472.12"/>
    </edge>
    <edge id=":160493817_1" function="internal">
        <lane id=":160493817_1_0" index="0" disallow="tram rail_urban rail rail_electric rail_fast ship container cable_car subway aircraft wheelchair scooter drone" speed="2.78" length="1.92" shape="789.66,474.81 788.04,473.80"/>
    </edge>
    <edge id=":160493831_0" function="internal">
        <lane id=":160493831_0_0" index="0" disallow="pedestrian tram rail_urban rail rail_electric rail_fast ship container cable_car subway aircraft wheelchair scooter drone" speed="13.89" length="0.26" shape="894.94,280.69 895.13,280.71"/>
        <lane id=":160493831_0_1" index="1" disallow="pedestrian tram rail_urban rail rail_electric rail_fast ship container cable_car subway aircraft wheelchair scooter drone" speed="13.89" length="0.26" shape="895.17,277.50 895.51,277.53"/>
    </edge>
    <edge id=":160493838_0" function="internal">
        <lane id=":160493838_0_0" index="0" disallow="pedestrian tram rail_urban rail rail_electric rail_fast ship container cable_car subway aircraft wheelchair scooter drone" speed="13.89" length="0.29" shape="844.56,276.95 844.87,276.98"/>
        <lane id=":160493838_0_1" index="1" disallow="pedestrian tram rail_urban rail rail_electric rail_fast ship container cable_car subway aircraft wheelchair scooter drone" speed="13.89" length="0.29" shape="844.83,273.76 845.10,273.79"/>
    </edge>
    <edge id=":160493846_0" function="internal">
        <lane id=":160493846_0_0" index="0" disallow="pedestrian tram rail_urban rail rail_electric rail_fast ship container cable_car subway aircraft wheelchair scooter drone" speed="13.89" length="0.30" shape="844.12,286.38 843.83,286.35"/>
        <lane id=":160493846_0_1" index="1" disallow="pedestrian tram rail_urban rail rail_electric rail_fast ship container cable_car subway aircraft wheelchair scooter drone" speed="13.89" length="0.30" shape="843.85,289.56 843.54,289.54"/>
    </edge>
    <edge id=":160493853_0" function="internal">
        <lane id=":160493853_0_0" index="0" disallow="pedestrian tram rail_urban rail rail_electric rail_fast ship container cable_car subway aircraft wheelchair scooter drone" speed="13.89" length="0.27" shape="894.36,290.70 894.05,290.67"/>
        <lane id=":160493853_0_1" index="1" disallow="pedestrian tram rail_urban rail rail_electric rail_fast ship container cable_car subway aircraft wheelchair scooter drone" speed="13.89" length="0.27" shape="894.01,293.88 893.77,293.86"/>
    </edge>
    <edge id=":160503259_0" function="internal">
        <lane id=":160503259_0_0" index="0" disallow="pedestrian tram rail_urban rail rail_electric rail_fast ship container cable_car subway aircraft wheelchair scooter drone" speed="13.89" length="8.16" shape="1150.11,415.75 1152.00,417.19 1153.04,418.48 1154.07,419.80 1155.92,421.29"/>
        <lane id=":160503259_0_1" index="1" disallow="pedestrian tram rail_urban rail rail_electric rail_fast ship container cable_car subway aircraft wheelchair scooter drone" speed="13.89" length="8.16" shape="1151.77,413.02 1153.68,414.47 1154.75,415.77 1155.80,417.10 1157.67,418.62"/>
        <lane id=":160503259_0_2" index="2" disallow="pedestrian tram rail_urban rail rail_electric rail_fast ship container cable_car subway aircraft wheelchair scooter drone" speed="13.89" length="8.16" shape="1151.77,413.02 1153.96,414.05 1155.62,414.43 1157.27,414.83 1159.42,415.94"/>
    </edge>
    <edge id=":160514854_0" function="internal">
        <lane id=":160514854_0_0" index="0" disallow="tram rail_urban rail rail_electric rail_fast ship container cable_car subway aircraft wheelchair scooter drone" speed="4.21" length="7.00" shape="822.27,37.09 821.34,39.04 821.43,40.38 822.56,41.10 824.71,41.22"/>
    </edge>
    <edge id=":1635318752_0" function="internal">
        <lane id=":1635318752_0_0" index="0" disallow="pedestrian tram rail_urban rail rail_electric rail_fast ship container cable_car subway aircraft wheelchair scooter drone" speed="8.33" length="0.23" shape="604.60,658.76 604.45,658.94"/>
    </edge>
    <edge id=":1635318752_1" function="internal">
        <lane id=":1635318752_1_0" index="0" disallow="pedestrian tram rail_urban rail rail_electric rail_fast ship container cable_car subway aircraft wheelchair scooter drone" speed="8.33" length="0.31" shape="606.92,660.98 607.12,660.74"/>
    </edge>
    <edge id=":1635318763_0" function="internal">
        <lane id=":1635318763_0_0" index="0" disallow="pedestrian tram rail_urban rail rail_electric rail_fast ship container cable_car subway aircraft wheelchair scooter drone" speed="8.33" length="3.07" width="5.50" shape="425.25,585.17 425.19,586.07 425.25,586.70 425.31,587.32 425.28,588.23"/>
    </edge>
    <edge id=":1635318763_1" function="internal">
        <lane id=":1635318763_1_0" index="0" disallow="pedestrian tram rail_urban rail rail_electric rail_fast ship container cable_car subway aircraft wheelchair scooter drone" speed="8.33" length="2.94" width="6.25" shape="430.75,588.79 430.90,587.93 431.09,587.36 431.29,586.79 431.45,585.94"/>
    </edge>
    <edge id=":1668717174_0" function="internal">
        <lane id=":1668717174_0_0" index="0" disallow="tram rail_urban rail rail_electric rail_fast ship container cable_car subway aircraft wheelchair scooter drone" speed="5.67" length="12.01" shape="839.32,965.59 835.45,965.69 834.00,964.83 834.97,963.01 838.35,960.22"/>
    </edge>
    <edge id=":1668717174_1" function="internal">
        <lane id=":1668717174_1_0" index="0" disallow="pedestrian tram rail_urban rail rail_electric rail_fast ship container cable_car subway aircraft wheelchair scooter drone" speed="8.33" length="9.69" shape="839.32,965.59 836.48,965.43 834.48,964.68 832.55,964.17 829.89,964.72"/>
    </edge>
    <edge id=":1668717174_2" function="internal">
        <lane id=":1668717174_2_0" index="0" disallow="pedestrian tram rail_urban rail rail_electric rail_fast ship container cable_car subway aircraft wheelchair scooter drone" speed="8.33" length="10.57" shape="831.10,967.68 833.61,966.12 834.93,964.33 836.15,962.34 838.35,960.22"/>
    </edge>
    <edge id=":1668717174_3" function="internal">
        <lane id=":1668717174_3_0" index="0" disallow="pedestrian tram rail_urban rail rail_electric rail_fast ship container cable_car subway aircraft wheelchair scooter drone" speed="3.65" length="4.67" shape="831.10,967.68 831.91,966.49 831.98,965.60 831.30,965.01 829.89,964.72"/>
    </edge>
    <edge id=":1769589022_0" function="internal">
        <lane id=":1769589022_0_0" index="0" disallow="pedestrian tram rail_urban rail rail_electric rail_fast ship container cable_car subway aircraft wheelchair scooter drone" speed="13.89" length="5.61" shape="163.03,767.76 162.37,769.33 161.19,770.12 160.03,770.90 159.40,772.48"/>
        <lane id=":1769589022_0_1" index="1" disallow="pedestrian tram rail_urban rail rail_electric rail_fast ship container cable_car subway aircraft wheelchair scooter drone" speed="13.89" length="5.61" shape="163.03,767.76 162.59,772.74"/>
    </edge>
    <edge id=":1769589022_2" function="internal">
        <lane id=":1769589022_2_0" index="0" disallow="pedestrian tram rail_urban rail rail_electric rail_fast ship container cable_car subway aircraft wheelchair scooter drone" speed="13.89" length="6.14" shape="168.97,773.28 168.60,771.65 167.57,770.69 166.55,769.73 166.21,768.10"/>
    </edge>
    <edge id=":1769589042_0" function="internal">
        <lane id=":1769589042_0_0" index="0" disallow="pedestrian tram rail_urban rail rail_electric rail_fast ship container cable_car subway aircraft wheelchair scooter drone" speed="5.54" length="9.47" shape="164.75,749.48 164.14,752.36 162.95,753.70 161.17,753.49 158.80,751.74"/>
    </edge>
    <edge id=":1769589042_1" function="internal">
        <lane id=":1769589042_1_0" index="0" disallow="pedestrian tram rail_urban rail rail_electric rail_fast ship container cable_car subway aircraft wheelchair scooter drone" speed="13.89" length="18.16" shape="164.75,749.48 163.05,767.56"/>
    </edge>
    <edge id=":1769589042_2" function="internal">
        <lane id=":1769589042_2_0" index="0" disallow="pedestrian tram rail_urban rail rail_electric rail_fast ship container cable_car subway aircraft wheelchair scooter drone" speed="11.11" length="5.92" shape="164.75,749.48 165.09,754.50 165.33,755.36"/>
    </edge>
    <edge id=":1769589042_3" function="internal">
        <lane id=":1769589042_3_0" index="0" disallow="pedestrian tram rail_urban rail rail_electric rail_fast ship container cable_car subway aircraft wheelchair scooter drone" speed="3.65" length="1.44" shape="164.75,749.48 165.44,750.75"/>
    </edge>
    <edge id=":1769589042_15" function="internal">
        <lane id=":1769589042_15_0" index="0" disallow="pedestrian tram rail_urban rail rail_electric rail_fast ship container cable_car subway aircraft wheelchair scooter drone" speed="11.11" length="15.04" shape="165.33,755.36 166.65,759.96 169.08,764.96 172.04,768.61"/>
    </edge>
    <edge id=":1769589042_16" function="internal">